  
       XFOIL         Version 6.99
  
 Calculated polar for: NACA 4412                                       
  
 1 1 Reynolds number fixed          Mach number fixed         
  
 xtrf =   1.000 (top)        1.000 (bottom)  
 Mach =   0.000     Re =    17.000 e 6     Ncrit =   9.000
  
   alpha    CL        CD       CDp       CM     Top_Xtr  Bot_Xtr
  ------ -------- --------- --------- -------- -------- --------
  -4.900  -0.0831   0.00553   0.00120  -0.1024   0.5523   0.0237
  -4.800  -0.0716   0.00551   0.00118  -0.1025   0.5482   0.0242
  -4.700  -0.0601   0.00551   0.00116  -0.1025   0.5420   0.0246
  -4.600  -0.0484   0.00550   0.00113  -0.1026   0.5380   0.0247
  -4.500  -0.0368   0.00548   0.00111  -0.1027   0.5350   0.0259
  -4.400  -0.0253   0.00546   0.00109  -0.1027   0.5306   0.0269
  -4.300  -0.0138   0.00545   0.00107  -0.1028   0.5253   0.0278
  -4.200  -0.0021   0.00543   0.00105  -0.1028   0.5217   0.0285
  -4.100   0.0095   0.00541   0.00103  -0.1029   0.5189   0.0289
  -4.000   0.0210   0.00541   0.00102  -0.1030   0.5140   0.0291
  -3.900   0.0326   0.00541   0.00100  -0.1030   0.5085   0.0300
  -3.800   0.0442   0.00539   0.00098  -0.1031   0.5055   0.0314
  -3.700   0.0559   0.00536   0.00096  -0.1032   0.5033   0.0326
  -3.600   0.0675   0.00535   0.00095  -0.1032   0.4995   0.0335
  -3.500   0.0790   0.00535   0.00093  -0.1033   0.4943   0.0341
  -3.400   0.0906   0.00534   0.00092  -0.1033   0.4900   0.0353
  -3.300   0.1023   0.00532   0.00090  -0.1034   0.4881   0.0368
  -3.200   0.1139   0.00530   0.00089  -0.1035   0.4853   0.0385
  -3.100   0.1254   0.00530   0.00088  -0.1035   0.4812   0.0393
  -3.000   0.1370   0.00530   0.00087  -0.1036   0.4769   0.0398
  -2.900   0.1487   0.00529   0.00085  -0.1037   0.4736   0.0412
  -2.800   0.1604   0.00527   0.00084  -0.1038   0.4722   0.0433
  -2.700   0.1720   0.00525   0.00082  -0.1038   0.4698   0.0455
  -2.600   0.1836   0.00524   0.00081  -0.1039   0.4669   0.0464
  -2.500   0.1952   0.00525   0.00081  -0.1040   0.4631   0.0473
  -2.400   0.2068   0.00524   0.00080  -0.1040   0.4586   0.0500
  -2.300   0.2185   0.00521   0.00078  -0.1041   0.4572   0.0523
  -2.200   0.2302   0.00520   0.00077  -0.1042   0.4560   0.0537
  -2.100   0.2418   0.00519   0.00077  -0.1043   0.4538   0.0544
  -2.000   0.2534   0.00518   0.00076  -0.1043   0.4513   0.0581
  -1.900   0.2650   0.00518   0.00075  -0.1044   0.4479   0.0609
  -1.800   0.2766   0.00517   0.00075  -0.1045   0.4444   0.0627
  -1.700   0.2882   0.00517   0.00074  -0.1046   0.4415   0.0634
  -1.600   0.3000   0.00515   0.00073  -0.1046   0.4407   0.0666
  -1.500   0.3116   0.00513   0.00072  -0.1047   0.4395   0.0701
  -1.400   0.3233   0.00512   0.00072  -0.1048   0.4376   0.0728
  -1.300   0.3349   0.00512   0.00072  -0.1049   0.4354   0.0740
  -1.200   0.3465   0.00512   0.00072  -0.1049   0.4327   0.0788
  -1.100   0.3581   0.00511   0.00071  -0.1050   0.4297   0.0823
  -1.000   0.3697   0.00510   0.00071  -0.1051   0.4263   0.0851
  -0.900   0.3814   0.00510   0.00071  -0.1052   0.4252   0.0864
  -0.800   0.3931   0.00508   0.00070  -0.1053   0.4243   0.0927
  -0.700   0.4048   0.00506   0.00070  -0.1054   0.4231   0.0964
  -0.600   0.4164   0.00506   0.00070  -0.1054   0.4213   0.0980
  -0.500   0.4280   0.00506   0.00070  -0.1055   0.4188   0.1023
  -0.400   0.4395   0.00505   0.00070  -0.1056   0.4163   0.1086
  -0.300   0.4511   0.00506   0.00070  -0.1056   0.4130   0.1113
  -0.200   0.4628   0.00506   0.00071  -0.1057   0.4099   0.1134
  -0.100   0.4744   0.00504   0.00070  -0.1058   0.4092   0.1202
   0.000   0.4861   0.00503   0.00070  -0.1059   0.4084   0.1256
   0.100   0.4978   0.00503   0.00071  -0.1060   0.4070   0.1272
   0.200   0.5094   0.00503   0.00071  -0.1061   0.4050   0.1333
   0.300   0.5209   0.00503   0.00072  -0.1061   0.4020   0.1385
   0.400   0.5324   0.00504   0.00072  -0.1062   0.3983   0.1414
   0.500   0.5439   0.00504   0.00073  -0.1063   0.3938   0.1487
   0.600   0.5556   0.00503   0.00073  -0.1063   0.3928   0.1548
   0.700   0.5672   0.00503   0.00074  -0.1064   0.3913   0.1577
   0.800   0.5787   0.00504   0.00075  -0.1065   0.3877   0.1646
   0.900   0.5901   0.00505   0.00076  -0.1065   0.3842   0.1717
   1.000   0.6015   0.00507   0.00077  -0.1066   0.3783   0.1740
   1.100   0.6131   0.00507   0.00078  -0.1067   0.3770   0.1815
   1.200   0.6246   0.00507   0.00079  -0.1067   0.3742   0.1889
   1.300   0.6360   0.00509   0.00081  -0.1068   0.3701   0.1925
   1.400   0.6473   0.00512   0.00082  -0.1068   0.3631   0.2002
   1.500   0.6588   0.00512   0.00083  -0.1069   0.3612   0.2057
   1.600   0.6703   0.00513   0.00085  -0.1069   0.3580   0.2147
   1.700   0.6814   0.00516   0.00087  -0.1069   0.3518   0.2213
   1.800   0.6928   0.00518   0.00088  -0.1070   0.3467   0.2239
   1.900   0.7043   0.00519   0.00090  -0.1071   0.3440   0.2322
   2.000   0.7155   0.00522   0.00092  -0.1071   0.3383   0.2400
   2.100   0.7267   0.00525   0.00095  -0.1071   0.3313   0.2482
   2.200   0.7381   0.00526   0.00096  -0.1072   0.3283   0.2558
   2.300   0.7491   0.00532   0.00100  -0.1071   0.3205   0.2619
   2.400   0.7604   0.00534   0.00102  -0.1072   0.3149   0.2710
   2.500   0.7716   0.00537   0.00105  -0.1072   0.3099   0.2779
   2.600   0.7825   0.00542   0.00108  -0.1072   0.3009   0.2883
   2.700   0.7937   0.00546   0.00111  -0.1072   0.2959   0.2931
   2.800   0.8046   0.00551   0.00115  -0.1071   0.2861   0.3041
   2.900   0.8158   0.00554   0.00117  -0.1072   0.2821   0.3111
   3.000   0.8266   0.00560   0.00122  -0.1071   0.2726   0.3233
   3.100   0.8377   0.00563   0.00124  -0.1071   0.2673   0.3337
   3.200   0.8485   0.00570   0.00129  -0.1071   0.2585   0.3428
   3.400   0.8702   0.00580   0.00138  -0.1070   0.2422   0.3669
   3.600   0.8919   0.00590   0.00146  -0.1070   0.2275   0.3972
   3.800   0.9135   0.00598   0.00156  -0.1069   0.2110   0.4424
   4.000   0.9350   0.00607   0.00166  -0.1068   0.1970   0.4812
   4.100   0.9461   0.00609   0.00169  -0.1069   0.1930   0.4986
   4.200   0.9566   0.00616   0.00176  -0.1068   0.1839   0.5139
   4.300   0.9674   0.00620   0.00180  -0.1067   0.1769   0.5382
   4.400   0.9779   0.00628   0.00187  -0.1067   0.1678   0.5495
   4.500   0.9888   0.00632   0.00191  -0.1066   0.1628   0.5660
   4.600   0.9993   0.00639   0.00198  -0.1066   0.1538   0.5819
   4.700   1.0100   0.00644   0.00203  -0.1065   0.1488   0.6001
   4.800   1.0205   0.00650   0.00209  -0.1064   0.1403   0.6184
   4.900   1.0313   0.00655   0.00214  -0.1064   0.1354   0.6351
   5.000   1.0416   0.00663   0.00222  -0.1063   0.1260   0.6554
   5.100   1.0525   0.00665   0.00226  -0.1063   0.1228   0.6761
   5.300   1.0735   0.00677   0.00239  -0.1061   0.1097   0.7155
   5.400   1.0837   0.00686   0.00248  -0.1060   0.1013   0.7331
   5.500   1.0946   0.00688   0.00252  -0.1060   0.0983   0.7566
   5.600   1.1049   0.00695   0.00260  -0.1059   0.0933   0.7779
   5.700   1.1155   0.00699   0.00266  -0.1058   0.0874   0.8004
   5.800   1.1260   0.00703   0.00273  -0.1057   0.0838   0.8227
   5.900   1.1361   0.00710   0.00281  -0.1056   0.0764   0.8475
   6.000   1.1468   0.00712   0.00286  -0.1055   0.0746   0.8694
   6.100   1.1567   0.00718   0.00294  -0.1053   0.0701   0.8970
   6.200   1.1668   0.00720   0.00301  -0.1051   0.0656   0.9237
   6.300   1.1764   0.00721   0.00306  -0.1048   0.0640   0.9518
   6.400   1.1841   0.00727   0.00315  -0.1041   0.0597   0.9781
   6.500   1.1962   0.00733   0.00320  -0.1043   0.0558   0.9960
   6.600   1.2073   0.00740   0.00326  -0.1044   0.0537   1.0000
   6.700   1.2176   0.00751   0.00334  -0.1042   0.0503   1.0000
   6.800   1.2283   0.00757   0.00339  -0.1042   0.0477   1.0000
   6.900   1.2389   0.00764   0.00345  -0.1041   0.0466   1.0000
   7.000   1.2492   0.00774   0.00352  -0.1040   0.0442   1.0000
   7.100   1.2596   0.00782   0.00359  -0.1039   0.0410   1.0000
   7.200   1.2702   0.00789   0.00365  -0.1038   0.0398   1.0000
   7.300   1.2805   0.00799   0.00372  -0.1037   0.0376   1.0000
   7.400   1.2908   0.00808   0.00380  -0.1036   0.0353   1.0000
   7.500   1.3014   0.00815   0.00385  -0.1035   0.0340   1.0000
   7.600   1.3119   0.00822   0.00391  -0.1035   0.0333   1.0000
   7.700   1.3222   0.00830   0.00399  -0.1033   0.0320   1.0000
   7.800   1.3324   0.00840   0.00406  -0.1032   0.0303   1.0000
   7.900   1.3428   0.00847   0.00413  -0.1031   0.0288   1.0000
   8.000   1.3533   0.00854   0.00419  -0.1030   0.0283   1.0000
   8.100   1.3636   0.00862   0.00426  -0.1029   0.0273   1.0000
   8.200   1.3736   0.00872   0.00434  -0.1028   0.0259   1.0000
   8.300   1.3838   0.00881   0.00442  -0.1027   0.0242   1.0000
   8.400   1.3942   0.00888   0.00448  -0.1026   0.0238   1.0000
   8.500   1.4045   0.00896   0.00455  -0.1025   0.0233   1.0000
   8.600   1.4146   0.00904   0.00463  -0.1023   0.0226   1.0000
   8.700   1.4246   0.00914   0.00471  -0.1022   0.0216   1.0000
   8.800   1.4347   0.00923   0.00479  -0.1020   0.0205   1.0000
   8.900   1.4449   0.00930   0.00485  -0.1019   0.0200   1.0000
   9.000   1.4551   0.00938   0.00492  -0.1018   0.0198   1.0000
   9.100   1.4652   0.00946   0.00500  -0.1016   0.0194   1.0000
   9.200   1.4751   0.00955   0.00508  -0.1015   0.0187   1.0000
   9.300   1.4849   0.00965   0.00517  -0.1013   0.0180   1.0000
   9.400   1.4947   0.00975   0.00526  -0.1011   0.0170   1.0000
   9.500   1.5047   0.00983   0.00533  -0.1010   0.0165   1.0000
   9.600   1.5147   0.00991   0.00541  -0.1008   0.0163   1.0000
   9.700   1.5246   0.01000   0.00549  -0.1006   0.0160   1.0000
   9.800   1.5343   0.01009   0.00558  -0.1005   0.0156   1.0000
   9.900   1.5439   0.01020   0.00567  -0.1002   0.0151   1.0000
  10.000   1.5535   0.01030   0.00577  -0.1000   0.0145   1.0000
  10.100   1.5631   0.01040   0.00586  -0.0998   0.0139   1.0000
  10.200   1.5728   0.01048   0.00594  -0.0996   0.0136   1.0000
  10.300   1.5826   0.01057   0.00602  -0.0994   0.0135   1.0000
  10.400   1.5922   0.01066   0.00611  -0.0992   0.0133   1.0000
  10.500   1.6018   0.01075   0.00620  -0.0990   0.0131   1.0000
  10.600   1.6112   0.01085   0.00629  -0.0988   0.0129   1.0000
  10.700   1.6205   0.01096   0.00639  -0.0985   0.0125   1.0000
  10.800   1.6297   0.01107   0.00649  -0.0982   0.0122   1.0000
  10.900   1.6388   0.01118   0.00660  -0.0979   0.0118   1.0000
  11.000   1.6479   0.01129   0.00670  -0.0977   0.0113   1.0000
  11.100   1.6571   0.01139   0.00680  -0.0974   0.0109   1.0000
  11.200   1.6664   0.01149   0.00689  -0.0971   0.0109   1.0000
  11.300   1.6755   0.01159   0.00699  -0.0968   0.0108   1.0000
  11.400   1.6846   0.01169   0.00709  -0.0966   0.0106   1.0000
  11.500   1.6935   0.01180   0.00720  -0.0962   0.0105   1.0000
  11.600   1.7023   0.01191   0.00731  -0.0959   0.0103   1.0000
  11.700   1.7109   0.01203   0.00742  -0.0955   0.0100   1.0000
  11.800   1.7193   0.01216   0.00754  -0.0951   0.0098   1.0000
  11.900   1.7276   0.01228   0.00766  -0.0947   0.0095   1.0000
  12.000   1.7359   0.01241   0.00778  -0.0943   0.0092   1.0000
  12.100   1.7440   0.01253   0.00790  -0.0938   0.0089   1.0000
  12.200   1.7521   0.01265   0.00802  -0.0933   0.0087   1.0000
  12.300   1.7602   0.01276   0.00813  -0.0929   0.0087   1.0000
  12.400   1.7678   0.01287   0.00824  -0.0923   0.0086   1.0000
  12.500   1.7749   0.01298   0.00835  -0.0917   0.0086   1.0000
  12.600   1.7819   0.01310   0.00847  -0.0910   0.0085   1.0000
  12.700   1.7888   0.01322   0.00860  -0.0903   0.0085   1.0000
  12.800   1.7954   0.01335   0.00873  -0.0895   0.0084   1.0000
  12.900   1.8022   0.01349   0.00886  -0.0888   0.0083   1.0000
  13.000   1.8089   0.01363   0.00900  -0.0882   0.0082   1.0000
  13.100   1.8155   0.01378   0.00915  -0.0874   0.0080   1.0000
  13.200   1.8217   0.01394   0.00932  -0.0867   0.0079   1.0000
  13.300   1.8280   0.01411   0.00948  -0.0859   0.0077   1.0000
  13.400   1.8344   0.01427   0.00965  -0.0852   0.0076   1.0000
  13.500   1.8407   0.01444   0.00982  -0.0845   0.0074   1.0000
  13.600   1.8468   0.01462   0.01000  -0.0838   0.0072   1.0000
  13.700   1.8531   0.01479   0.01017  -0.0831   0.0070   1.0000
  13.800   1.8595   0.01497   0.01035  -0.0824   0.0068   1.0000
  13.900   1.8657   0.01515   0.01053  -0.0817   0.0067   1.0000
  14.000   1.8720   0.01533   0.01071  -0.0810   0.0067   1.0000
  14.100   1.8784   0.01551   0.01090  -0.0804   0.0067   1.0000
  14.200   1.8849   0.01569   0.01108  -0.0798   0.0067   1.0000
  14.300   1.8912   0.01587   0.01127  -0.0791   0.0066   1.0000
  14.400   1.8971   0.01607   0.01147  -0.0784   0.0066   1.0000
  14.500   1.9029   0.01628   0.01169  -0.0778   0.0065   1.0000
  14.600   1.9090   0.01649   0.01190  -0.0771   0.0065   1.0000
  14.700   1.9150   0.01671   0.01212  -0.0765   0.0064   1.0000
  14.800   1.9207   0.01694   0.01236  -0.0758   0.0064   1.0000
  14.900   1.9258   0.01720   0.01261  -0.0750   0.0063   1.0000
  15.000   1.9313   0.01744   0.01286  -0.0743   0.0062   1.0000
  15.100   1.9369   0.01769   0.01311  -0.0737   0.0061   1.0000
  15.200   1.9419   0.01797   0.01339  -0.0729   0.0060   1.0000
  15.300   1.9465   0.01827   0.01370  -0.0722   0.0059   1.0000
  15.400   1.9514   0.01856   0.01400  -0.0715   0.0058   1.0000
  15.500   1.9567   0.01885   0.01429  -0.0708   0.0057   1.0000
  15.600   1.9611   0.01917   0.01461  -0.0701   0.0056   1.0000
  15.700   1.9656   0.01949   0.01494  -0.0693   0.0055   1.0000
  15.800   1.9705   0.01980   0.01525  -0.0687   0.0054   1.0000
  15.900   1.9752   0.02012   0.01558  -0.0680   0.0053   1.0000
  16.000   1.9795   0.02048   0.01594  -0.0673   0.0052   1.0000
  16.100   1.9841   0.02082   0.01630  -0.0666   0.0051   1.0000
  16.200   1.9889   0.02115   0.01664  -0.0660   0.0050   1.0000
  16.300   1.9934   0.02151   0.01700  -0.0654   0.0050   1.0000
  16.400   1.9978   0.02188   0.01738  -0.0647   0.0050   1.0000
  16.500   2.0025   0.02223   0.01773  -0.0641   0.0050   1.0000
  16.600   2.0069   0.02259   0.01810  -0.0635   0.0050   1.0000
  16.700   2.0107   0.02301   0.01853  -0.0629   0.0050   1.0000
  16.800   2.0151   0.02340   0.01892  -0.0623   0.0050   1.0000
  16.900   2.0195   0.02378   0.01932  -0.0617   0.0050   1.0000
  17.000   2.0231   0.02423   0.01978  -0.0611   0.0050   1.0000
  17.100   2.0270   0.02467   0.02023  -0.0605   0.0049   1.0000
  17.200   2.0311   0.02510   0.02066  -0.0600   0.0049   1.0000
  17.300   2.0346   0.02558   0.02115  -0.0594   0.0049   1.0000
  17.400   2.0379   0.02607   0.02166  -0.0588   0.0049   1.0000
  17.500   2.0414   0.02654   0.02213  -0.0582   0.0048   1.0000
  17.600   2.0443   0.02707   0.02267  -0.0576   0.0048   1.0000
  17.700   2.0469   0.02763   0.02325  -0.0570   0.0048   1.0000
  17.800   2.0503   0.02814   0.02377  -0.0565   0.0047   1.0000
  17.900   2.0525   0.02875   0.02439  -0.0559   0.0047   1.0000
  18.000   2.0552   0.02934   0.02499  -0.0554   0.0047   1.0000
  18.100   2.0583   0.02990   0.02555  -0.0549   0.0046   1.0000
  18.200   2.0599   0.03060   0.02626  -0.0544   0.0046   1.0000
  18.300   2.0623   0.03123   0.02691  -0.0539   0.0046   1.0000
  18.400   2.0644   0.03190   0.02758  -0.0534   0.0045   1.0000
  18.500   2.0657   0.03265   0.02835  -0.0529   0.0045   1.0000
  18.600   2.0675   0.03334   0.02905  -0.0524   0.0044   1.0000
  18.700   2.0690   0.03408   0.02981  -0.0519   0.0044   1.0000
  18.800   2.0698   0.03490   0.03064  -0.0514   0.0043   1.0000
  18.900   2.0714   0.03566   0.03140  -0.0510   0.0042   1.0000
  19.000   2.0718   0.03655   0.03231  -0.0506   0.0042   1.0000
  19.100   2.0733   0.03733   0.03310  -0.0502   0.0041   1.0000
  19.200   2.0744   0.03816   0.03395  -0.0498   0.0041   1.0000
  19.300   2.0747   0.03910   0.03490  -0.0495   0.0040   1.0000
  19.400   2.0762   0.03990   0.03572  -0.0491   0.0039   1.0000
  19.500   2.0763   0.04089   0.03672  -0.0488   0.0039   1.0000
  19.600   2.0770   0.04179   0.03764  -0.0485   0.0038   1.0000
  19.700   2.0769   0.04278   0.03864  -0.0482   0.0037   1.0000
  19.800   2.0769   0.04377   0.03965  -0.0479   0.0037   1.0000
  19.900   2.0777   0.04467   0.04057  -0.0476   0.0037   1.0000
  20.000   2.0763   0.04585   0.04177  -0.0474   0.0036   1.0000
  20.100   2.0770   0.04679   0.04272  -0.0471   0.0036   1.0000
  20.200   2.0772   0.04781   0.04375  -0.0469   0.0036   1.0000
  20.300   2.0768   0.04891   0.04487  -0.0468   0.0036   1.0000
  20.400   2.0775   0.04986   0.04584  -0.0466   0.0036   1.0000
  20.500   2.0763   0.05108   0.04708  -0.0465   0.0036   1.0000
  20.600   2.0762   0.05215   0.04817  -0.0463   0.0036   1.0000
  20.700   2.0762   0.05321   0.04925  -0.0462   0.0036   1.0000
  20.800   2.0746   0.05448   0.05054  -0.0461   0.0036   1.0000
  20.900   2.0744   0.05554   0.05161  -0.0460   0.0036   1.0000
  21.000   2.0723   0.05687   0.05297  -0.0459   0.0036   1.0000
  21.100   2.0714   0.05806   0.05417  -0.0458   0.0036   1.0000
  21.200   2.0707   0.05922   0.05534  -0.0458   0.0036   1.0000
  21.300   2.0679   0.06068   0.05683  -0.0458   0.0036   1.0000
  21.400   2.0672   0.06184   0.05801  -0.0457   0.0036   1.0000
  21.500   2.0644   0.06331   0.05950  -0.0458   0.0035   1.0000
  21.600   2.0626   0.06464   0.06085  -0.0458   0.0035   1.0000
  21.700   2.0618   0.06584   0.06207  -0.0458   0.0035   1.0000
  21.800   2.0577   0.06750   0.06376  -0.0459   0.0035   1.0000
  21.900   2.0564   0.06878   0.06505  -0.0460   0.0035   1.0000
  22.000   2.0530   0.07031   0.06661  -0.0461   0.0035   1.0000
  22.100   2.0498   0.07183   0.06815  -0.0462   0.0035   1.0000
  22.200   2.0483   0.07312   0.06945  -0.0462   0.0035   1.0000
  22.300   2.0431   0.07494   0.07130  -0.0464   0.0035   1.0000
  22.400   2.0407   0.07636   0.07274  -0.0466   0.0035   1.0000
  22.500   2.0380   0.07785   0.07426  -0.0467   0.0035   1.0000
  22.600   2.0330   0.07968   0.07611  -0.0470   0.0035   1.0000
  22.700   2.0307   0.08110   0.07755  -0.0471   0.0035   1.0000
  22.800   2.0257   0.08294   0.07942  -0.0475   0.0035   1.0000
  22.900   2.0220   0.08458   0.08108  -0.0477   0.0034   1.0000
  23.000   2.0196   0.08602   0.08254  -0.0479   0.0034   1.0000
  23.100   2.0126   0.08813   0.08468  -0.0483   0.0034   1.0000
  23.200   2.0096   0.08965   0.08622  -0.0486   0.0034   1.0000
  23.300   2.0069   0.09113   0.08772  -0.0488   0.0034   1.0000
  23.400   1.9989   0.09340   0.09002  -0.0493   0.0034   1.0000
  23.500   1.9960   0.09495   0.09159  -0.0497   0.0034   1.0000
  23.600   1.9921   0.09665   0.09331  -0.0500   0.0034   1.0000
  23.700   1.9849   0.09884   0.09553  -0.0506   0.0033   1.0000
  23.800   1.9814   0.10047   0.09718  -0.0510   0.0033   1.0000
  23.900   1.9779   0.10213   0.09886  -0.0514   0.0033   1.0000
  24.000   1.9703   0.10442   0.10118  -0.0521   0.0033   1.0000
  24.100   1.9664   0.10612   0.10290  -0.0525   0.0033   1.0000
  24.200   1.9616   0.10796   0.10476  -0.0530   0.0033   1.0000
  24.300   1.9542   0.11018   0.10702  -0.0537   0.0033   1.0000
  24.400   1.9505   0.11185   0.10870  -0.0542   0.0032   1.0000
  24.500   1.9459   0.11368   0.11057  -0.0548   0.0032   1.0000
  24.600   1.9385   0.11598   0.11289  -0.0556   0.0032   1.0000
  24.700   1.9353   0.11761   0.11454  -0.0562   0.0032   1.0000
  24.800   1.9305   0.11950   0.11645  -0.0568   0.0032   1.0000
  24.900   1.9213   0.12210   0.11908  -0.0578   0.0031   1.0000
  25.000   1.9187   0.12367   0.12067  -0.0584   0.0031   1.0000
  25.100   1.9145   0.12549   0.12251  -0.0592   0.0031   1.0000
  25.200   1.9059   0.12804   0.12510  -0.0603   0.0031   1.0000
  25.300   1.9029   0.12970   0.12678  -0.0610   0.0031   1.0000
  25.400   1.8999   0.13134   0.12844  -0.0617   0.0031   1.0000
  25.500   1.8893   0.13419   0.13132  -0.0630   0.0031   1.0000
  25.600   1.8856   0.13592   0.13308  -0.0638   0.0030   1.0000
  25.700   1.8833   0.13747   0.13464  -0.0645   0.0030   1.0000
  25.800   1.8723   0.14045   0.13765  -0.0660   0.0030   1.0000
  25.900   1.8696   0.14209   0.13932  -0.0668   0.0030   1.0000
  26.000   1.8668   0.14373   0.14098  -0.0676   0.0030   1.0000
  26.100   1.8567   0.14664   0.14392  -0.0692   0.0029   1.0000
  26.200   1.8530   0.14848   0.14578  -0.0702   0.0029   1.0000
  26.300   1.8507   0.15006   0.14738  -0.0711   0.0029   1.0000
  26.400   1.8409   0.15299   0.15034  -0.0728   0.0029   1.0000
  26.500   1.8378   0.15474   0.15211  -0.0738   0.0029   1.0000
  26.600   1.8343   0.15654   0.15394  -0.0749   0.0028   1.0000
  26.700   1.8280   0.15888   0.15631  -0.0763   0.0028   1.0000
  26.800   1.8222   0.16115   0.15860  -0.0777   0.0028   1.0000
  26.900   1.8192   0.16290   0.16037  -0.0789   0.0028   1.0000
  27.000   1.8165   0.16460   0.16209  -0.0799   0.0027   1.0000
  27.100   1.8055   0.16779   0.16532  -0.0820   0.0027   1.0000
  27.200   1.8033   0.16940   0.16695  -0.0831   0.0027   1.0000
  27.300   1.8012   0.17099   0.16855  -0.0842   0.0027   1.0000
  27.400   1.7905   0.17420   0.17181  -0.0864   0.0027   1.0000
  27.500   1.7873   0.17602   0.17365  -0.0877   0.0027   1.0000
  27.600   1.7849   0.17772   0.17536  -0.0889   0.0026   1.0000
  27.700   1.7749   0.18088   0.17857  -0.0912   0.0026   1.0000
  27.800   1.7711   0.18284   0.18055  -0.0926   0.0026   1.0000
  27.900   1.7689   0.18454   0.18226  -0.0939   0.0026   1.0000
  28.000   1.7661   0.18632   0.18406  -0.0952   0.0026   1.0000
  28.100   1.7551   0.18977   0.18756  -0.0978   0.0025   1.0000
  28.200   1.7526   0.19154   0.18934  -0.0992   0.0025   1.0000
  28.300   1.7502   0.19329   0.19111  -0.1006   0.0025   1.0000
  28.400   1.7394   0.19675   0.19462  -0.1033   0.0025   1.0000
  28.500   1.7362   0.19869   0.19658  -0.1048   0.0025   1.0000
  28.600   1.7335   0.20053   0.19843  -0.1063   0.0025   1.0000
  28.700   1.7229   0.20402   0.20197  -0.1091   0.0025   1.0000
  28.800   1.7194   0.20607   0.20404  -0.1108   0.0024   1.0000
  28.900   1.7169   0.20789   0.20588  -0.1123   0.0024   1.0000
  29.000   1.7143   0.20972   0.20773  -0.1139   0.0024   1.0000
  29.100   1.7026   0.21355   0.21161  -0.1171   0.0024   1.0000
  29.200   1.7006   0.21530   0.21338  -0.1186   0.0024   1.0000
  29.300   1.6988   0.21699   0.21508  -0.1200   0.0024   1.0000
  29.400   1.6858   0.22119   0.21933  -0.1236   0.0024   1.0000
  29.500   1.6835   0.22300   0.22116  -0.1252   0.0024   1.0000
  29.600   1.6818   0.22465   0.22283  -0.1267   0.0024   1.0000
  29.700   1.6795   0.22646   0.22465  -0.1283   0.0024   1.0000
  29.800   1.6661   0.23076   0.22901  -0.1320   0.0024   1.0000
  29.900   1.6643   0.23247   0.23074  -0.1336   0.0024   1.0000
  30.000   1.6617   0.23439   0.23268  -0.1354   0.0024   1.0000
