  
       XFOIL         Version 6.99
  
 Calculated polar for: NACA 4412                                       
  
 1 1 Reynolds number fixed          Mach number fixed         
  
 xtrf =   1.000 (top)        1.000 (bottom)  
 Mach =   0.000     Re =    41.000 e 6     Ncrit =   9.000
  
   alpha    CL        CD       CDp       CM     Top_Xtr  Bot_Xtr
  ------ -------- --------- --------- -------- -------- --------
  -4.800  -0.0736   0.00514   0.00106  -0.1024   0.4542   0.0202
  -4.700  -0.0619   0.00512   0.00104  -0.1025   0.4517   0.0205
  -4.600  -0.0503   0.00511   0.00103  -0.1025   0.4489   0.0207
  -4.500  -0.0386   0.00510   0.00101  -0.1026   0.4450   0.0208
  -4.400  -0.0269   0.00509   0.00099  -0.1027   0.4417   0.0210
  -4.300  -0.0151   0.00507   0.00098  -0.1028   0.4411   0.0218
  -4.200  -0.0034   0.00505   0.00096  -0.1029   0.4398   0.0227
  -4.100   0.0083   0.00502   0.00094  -0.1029   0.4386   0.0236
  -4.000   0.0200   0.00501   0.00092  -0.1030   0.4361   0.0245
  -3.900   0.0316   0.00500   0.00091  -0.1031   0.4330   0.0246
  -3.800   0.0433   0.00500   0.00090  -0.1032   0.4297   0.0248
  -3.700   0.0550   0.00498   0.00089  -0.1032   0.4262   0.0258
  -3.600   0.0668   0.00496   0.00087  -0.1033   0.4253   0.0269
  -3.500   0.0785   0.00494   0.00085  -0.1034   0.4247   0.0279
  -3.400   0.0903   0.00492   0.00084  -0.1035   0.4239   0.0287
  -3.300   0.1020   0.00491   0.00083  -0.1036   0.4223   0.0289
  -3.200   0.1137   0.00491   0.00082  -0.1037   0.4200   0.0291
  -3.100   0.1254   0.00490   0.00081  -0.1037   0.4175   0.0306
  -3.000   0.1370   0.00489   0.00080  -0.1038   0.4143   0.0323
  -2.900   0.1487   0.00487   0.00079  -0.1039   0.4117   0.0334
  -2.800   0.1605   0.00486   0.00077  -0.1040   0.4096   0.0340
  -2.700   0.1723   0.00485   0.00076  -0.1041   0.4092   0.0343
  -2.600   0.1841   0.00483   0.00076  -0.1042   0.4087   0.0357
  -2.500   0.1958   0.00481   0.00074  -0.1043   0.4081   0.0375
  -2.400   0.2075   0.00480   0.00073  -0.1044   0.4059   0.0390
  -2.300   0.2192   0.00480   0.00073  -0.1044   0.4037   0.0397
  -2.200   0.2308   0.00480   0.00073  -0.1045   0.4002   0.0403
  -2.100   0.2424   0.00480   0.00072  -0.1046   0.3953   0.0431
  -2.000   0.2542   0.00478   0.00071  -0.1047   0.3937   0.0446
  -1.900   0.2659   0.00477   0.00070  -0.1048   0.3928   0.0460
  -1.800   0.2777   0.00476   0.00070  -0.1049   0.3919   0.0466
  -1.700   0.2893   0.00477   0.00070  -0.1049   0.3884   0.0478
  -1.600   0.3009   0.00477   0.00070  -0.1050   0.3847   0.0508
  -1.500   0.3125   0.00476   0.00069  -0.1051   0.3797   0.0536
  -1.400   0.3242   0.00476   0.00068  -0.1052   0.3778   0.0543
  -1.300   0.3360   0.00475   0.00068  -0.1053   0.3770   0.0558
  -1.200   0.3476   0.00475   0.00068  -0.1053   0.3748   0.0586
  -1.100   0.3591   0.00475   0.00068  -0.1054   0.3706   0.0622
  -1.000   0.3707   0.00477   0.00069  -0.1054   0.3646   0.0626
  -0.900   0.3824   0.00477   0.00068  -0.1055   0.3622   0.0647
  -0.800   0.3941   0.00476   0.00068  -0.1056   0.3611   0.0681
  -0.700   0.4057   0.00476   0.00068  -0.1057   0.3582   0.0711
  -0.600   0.4171   0.00478   0.00069  -0.1057   0.3527   0.0729
  -0.500   0.4287   0.00479   0.00070  -0.1058   0.3473   0.0745
  -0.400   0.4404   0.00478   0.00069  -0.1059   0.3463   0.0792
  -0.300   0.4521   0.00478   0.00069  -0.1060   0.3442   0.0827
  -0.200   0.4635   0.00479   0.00070  -0.1060   0.3398   0.0846
  -0.100   0.4750   0.00482   0.00072  -0.1061   0.3325   0.0853
   0.000   0.4867   0.00482   0.00071  -0.1062   0.3307   0.0908
   0.100   0.4982   0.00482   0.00072  -0.1062   0.3271   0.0954
   0.200   0.5095   0.00485   0.00074  -0.1063   0.3210   0.0974
   0.300   0.5211   0.00486   0.00074  -0.1064   0.3162   0.0982
   0.400   0.5328   0.00487   0.00075  -0.1064   0.3143   0.1036
   0.500   0.5442   0.00488   0.00076  -0.1065   0.3100   0.1092
   0.600   0.5555   0.00491   0.00078  -0.1065   0.3018   0.1114
   0.700   0.5671   0.00492   0.00078  -0.1066   0.2997   0.1122
   0.800   0.5786   0.00494   0.00079  -0.1066   0.2963   0.1170
   0.900   0.5898   0.00498   0.00082  -0.1067   0.2876   0.1225
   1.000   0.6014   0.00498   0.00082  -0.1067   0.2846   0.1265
   1.100   0.6129   0.00500   0.00084  -0.1068   0.2813   0.1284
   1.200   0.6240   0.00504   0.00086  -0.1068   0.2717   0.1360
   1.300   0.6356   0.00505   0.00087  -0.1069   0.2686   0.1403
   1.400   0.6468   0.00510   0.00090  -0.1069   0.2626   0.1419
   1.500   0.6582   0.00513   0.00091  -0.1069   0.2555   0.1461
   1.600   0.6695   0.00516   0.00093  -0.1070   0.2511   0.1508
   1.700   0.6806   0.00519   0.00096  -0.1070   0.2421   0.1572
   1.800   0.6921   0.00522   0.00097  -0.1070   0.2387   0.1601
   1.900   0.7032   0.00527   0.00101  -0.1070   0.2315   0.1665
   2.000   0.7145   0.00529   0.00102  -0.1071   0.2250   0.1712
   2.100   0.7256   0.00535   0.00106  -0.1070   0.2179   0.1736
   2.200   0.7369   0.00538   0.00108  -0.1071   0.2111   0.1814
   2.400   0.7592   0.00546   0.00114  -0.1071   0.1984   0.1897
   2.600   0.7817   0.00554   0.00119  -0.1071   0.1888   0.2011
   2.700   0.7928   0.00558   0.00121  -0.1071   0.1807   0.2064
   2.800   0.8039   0.00563   0.00125  -0.1071   0.1752   0.2092
   2.900   0.8150   0.00567   0.00128  -0.1071   0.1674   0.2173
   3.000   0.8264   0.00569   0.00130  -0.1072   0.1652   0.2225
   3.100   0.8372   0.00577   0.00135  -0.1071   0.1561   0.2282
   3.200   0.8485   0.00579   0.00137  -0.1072   0.1520   0.2371
   3.300   0.8594   0.00586   0.00141  -0.1072   0.1457   0.2399
   3.400   0.8706   0.00590   0.00144  -0.1072   0.1390   0.2428
   3.500   0.8817   0.00595   0.00147  -0.1072   0.1349   0.2494
   3.600   0.8926   0.00600   0.00152  -0.1071   0.1267   0.2569
   3.700   0.9040   0.00602   0.00154  -0.1072   0.1250   0.2641
   3.800   0.9148   0.00609   0.00159  -0.1072   0.1193   0.2713
   3.900   0.9259   0.00613   0.00162  -0.1072   0.1127   0.2745
   4.000   0.9372   0.00615   0.00164  -0.1072   0.1113   0.2856
   4.100   0.9478   0.00624   0.00171  -0.1071   0.1031   0.2909
   4.200   0.9591   0.00627   0.00173  -0.1072   0.0994   0.2969
   4.400   0.9809   0.00638   0.00182  -0.1071   0.0899   0.3095
   4.500   0.9921   0.00641   0.00185  -0.1071   0.0870   0.3196
   4.600   1.0031   0.00645   0.00189  -0.1071   0.0846   0.3255
   4.700   1.0138   0.00653   0.00194  -0.1071   0.0762   0.3363
   4.800   1.0250   0.00655   0.00197  -0.1071   0.0753   0.3425
   4.900   1.0360   0.00660   0.00202  -0.1071   0.0731   0.3508
   5.000   1.0467   0.00667   0.00208  -0.1070   0.0670   0.3589
   5.100   1.0579   0.00668   0.00210  -0.1071   0.0654   0.3735
   5.200   1.0686   0.00676   0.00216  -0.1070   0.0621   0.3767
   5.300   1.0796   0.00680   0.00220  -0.1070   0.0596   0.3892
   5.400   1.0906   0.00683   0.00224  -0.1070   0.0560   0.4016
   5.500   1.1016   0.00687   0.00229  -0.1070   0.0545   0.4126
   5.600   1.1123   0.00693   0.00234  -0.1070   0.0516   0.4262
   5.700   1.1232   0.00697   0.00239  -0.1070   0.0482   0.4372
   5.800   1.1343   0.00700   0.00243  -0.1070   0.0471   0.4501
   5.900   1.1449   0.00706   0.00249  -0.1069   0.0446   0.4626
   6.000   1.1557   0.00711   0.00254  -0.1069   0.0410   0.4773
   6.100   1.1667   0.00713   0.00258  -0.1069   0.0402   0.4916
   6.200   1.1776   0.00718   0.00263  -0.1069   0.0393   0.4974
   6.300   1.1883   0.00723   0.00269  -0.1068   0.0374   0.5111
   6.400   1.1991   0.00728   0.00274  -0.1068   0.0346   0.5243
   6.500   1.2101   0.00731   0.00278  -0.1068   0.0339   0.5342
   6.600   1.2207   0.00737   0.00284  -0.1067   0.0322   0.5457
   6.700   1.2314   0.00743   0.00290  -0.1067   0.0305   0.5570
   6.800   1.2422   0.00747   0.00295  -0.1067   0.0288   0.5677
   6.900   1.2531   0.00750   0.00299  -0.1067   0.0285   0.5806
   7.100   1.2745   0.00760   0.00311  -0.1066   0.0267   0.6053
   7.200   1.2852   0.00765   0.00317  -0.1066   0.0254   0.6159
   7.300   1.2960   0.00769   0.00322  -0.1065   0.0241   0.6305
   7.400   1.3067   0.00773   0.00327  -0.1065   0.0237   0.6428
   7.500   1.3172   0.00779   0.00334  -0.1064   0.0226   0.6541
   7.600   1.3278   0.00784   0.00340  -0.1064   0.0217   0.6681
   7.700   1.3384   0.00789   0.00346  -0.1063   0.0204   0.6821
   7.900   1.3598   0.00796   0.00357  -0.1063   0.0198   0.7150
   8.000   1.3704   0.00800   0.00363  -0.1062   0.0193   0.7292
   8.100   1.3809   0.00806   0.00370  -0.1062   0.0186   0.7442
   8.200   1.3913   0.00811   0.00376  -0.1061   0.0178   0.7611
   8.300   1.4018   0.00815   0.00383  -0.1060   0.0170   0.7776
   8.400   1.4124   0.00818   0.00388  -0.1060   0.0166   0.7968
   8.500   1.4230   0.00822   0.00394  -0.1060   0.0164   0.8167
   8.600   1.4334   0.00826   0.00401  -0.1059   0.0161   0.8360
   8.700   1.4436   0.00831   0.00410  -0.1058   0.0152   0.8593
   8.800   1.4537   0.00835   0.00417  -0.1056   0.0145   0.8868
   8.900   1.4640   0.00837   0.00424  -0.1055   0.0139   0.9153
   9.000   1.4738   0.00838   0.00431  -0.1053   0.0135   0.9474
   9.100   1.4817   0.00838   0.00437  -0.1046   0.0135   0.9855
   9.200   1.4931   0.00843   0.00443  -0.1048   0.0133   1.0000
   9.300   1.5034   0.00850   0.00449  -0.1047   0.0131   1.0000
   9.400   1.5136   0.00858   0.00456  -0.1046   0.0128   1.0000
   9.500   1.5237   0.00867   0.00464  -0.1045   0.0124   1.0000
   9.600   1.5338   0.00875   0.00471  -0.1043   0.0119   1.0000
   9.700   1.5440   0.00883   0.00478  -0.1042   0.0114   1.0000
   9.800   1.5542   0.00890   0.00485  -0.1041   0.0110   1.0000
   9.900   1.5644   0.00897   0.00491  -0.1040   0.0109   1.0000
  10.000   1.5746   0.00904   0.00498  -0.1039   0.0108   1.0000
  10.100   1.5847   0.00912   0.00505  -0.1037   0.0107   1.0000
  10.200   1.5947   0.00920   0.00512  -0.1036   0.0105   1.0000
  10.300   1.6045   0.00929   0.00520  -0.1034   0.0102   1.0000
  10.400   1.6142   0.00939   0.00530  -0.1032   0.0098   1.0000
  10.500   1.6240   0.00948   0.00538  -0.1031   0.0094   1.0000
  10.600   1.6339   0.00956   0.00545  -0.1029   0.0091   1.0000
  10.700   1.6437   0.00964   0.00553  -0.1027   0.0088   1.0000
  10.800   1.6536   0.00972   0.00560  -0.1026   0.0087   1.0000
  10.900   1.6634   0.00980   0.00568  -0.1024   0.0086   1.0000
  11.000   1.6733   0.00988   0.00575  -0.1022   0.0086   1.0000
  11.100   1.6830   0.00996   0.00583  -0.1021   0.0085   1.0000
  11.200   1.6927   0.01005   0.00591  -0.1019   0.0084   1.0000
  11.300   1.7022   0.01014   0.00600  -0.1017   0.0083   1.0000
  11.400   1.7117   0.01023   0.00609  -0.1014   0.0082   1.0000
  11.500   1.7210   0.01033   0.00618  -0.1012   0.0080   1.0000
  11.600   1.7303   0.01044   0.00628  -0.1009   0.0077   1.0000
  11.700   1.7395   0.01054   0.00637  -0.1007   0.0075   1.0000
  11.800   1.7488   0.01064   0.00647  -0.1004   0.0073   1.0000
  11.900   1.7580   0.01073   0.00656  -0.1002   0.0071   1.0000
  12.000   1.7673   0.01083   0.00665  -0.0999   0.0069   1.0000
  12.100   1.7765   0.01093   0.00674  -0.0996   0.0067   1.0000
  12.200   1.7857   0.01102   0.00683  -0.0994   0.0067   1.0000
  12.300   1.7948   0.01111   0.00692  -0.0991   0.0067   1.0000
  12.400   1.8039   0.01121   0.00701  -0.0988   0.0067   1.0000
  12.500   1.8129   0.01130   0.00711  -0.0985   0.0066   1.0000
  12.600   1.8218   0.01140   0.00720  -0.0982   0.0066   1.0000
  12.700   1.8306   0.01151   0.00730  -0.0979   0.0065   1.0000
  12.800   1.8392   0.01161   0.00741  -0.0975   0.0064   1.0000
  12.900   1.8476   0.01173   0.00752  -0.0971   0.0063   1.0000
  13.000   1.8557   0.01185   0.00764  -0.0967   0.0062   1.0000
  13.100   1.8633   0.01199   0.00777  -0.0961   0.0059   1.0000
  13.200   1.8712   0.01210   0.00788  -0.0956   0.0058   1.0000
  13.300   1.8789   0.01223   0.00800  -0.0951   0.0057   1.0000
  13.400   1.8864   0.01234   0.00812  -0.0945   0.0056   1.0000
  13.500   1.8931   0.01246   0.00823  -0.0938   0.0054   1.0000
  13.600   1.8995   0.01258   0.00835  -0.0930   0.0053   1.0000
  13.700   1.9060   0.01270   0.00847  -0.0922   0.0052   1.0000
  13.800   1.9122   0.01283   0.00860  -0.0914   0.0051   1.0000
  13.900   1.9187   0.01296   0.00873  -0.0907   0.0050   1.0000
  14.000   1.9256   0.01308   0.00885  -0.0900   0.0050   1.0000
  14.100   1.9322   0.01321   0.00898  -0.0893   0.0050   1.0000
  14.200   1.9386   0.01335   0.00912  -0.0886   0.0050   1.0000
  14.300   1.9451   0.01349   0.00926  -0.0879   0.0050   1.0000
  14.400   1.9518   0.01362   0.00940  -0.0872   0.0050   1.0000
  14.500   1.9585   0.01377   0.00954  -0.0866   0.0050   1.0000
  14.600   1.9647   0.01393   0.00970  -0.0858   0.0049   1.0000
  14.700   1.9709   0.01409   0.00986  -0.0851   0.0049   1.0000
  14.800   1.9773   0.01424   0.01002  -0.0844   0.0049   1.0000
  14.900   1.9838   0.01441   0.01018  -0.0838   0.0049   1.0000
  15.000   1.9898   0.01458   0.01036  -0.0831   0.0048   1.0000
  15.100   1.9956   0.01477   0.01055  -0.0824   0.0048   1.0000
  15.200   2.0013   0.01497   0.01075  -0.0816   0.0047   1.0000
  15.300   2.0075   0.01515   0.01094  -0.0809   0.0047   1.0000
  15.400   2.0131   0.01536   0.01114  -0.0802   0.0046   1.0000
  15.500   2.0182   0.01559   0.01137  -0.0794   0.0045   1.0000
  15.600   2.0234   0.01582   0.01161  -0.0786   0.0045   1.0000
  15.700   2.0290   0.01605   0.01184  -0.0779   0.0044   1.0000
  15.800   2.0346   0.01628   0.01207  -0.0772   0.0043   1.0000
  15.900   2.0389   0.01655   0.01234  -0.0764   0.0042   1.0000
  16.000   2.0441   0.01679   0.01259  -0.0756   0.0041   1.0000
  16.100   2.0497   0.01703   0.01283  -0.0750   0.0041   1.0000
  16.200   2.0551   0.01728   0.01308  -0.0743   0.0040   1.0000
  16.300   2.0596   0.01757   0.01337  -0.0735   0.0039   1.0000
  16.400   2.0648   0.01784   0.01365  -0.0728   0.0038   1.0000
  16.500   2.0702   0.01810   0.01391  -0.0722   0.0037   1.0000
  16.600   2.0752   0.01837   0.01419  -0.0715   0.0037   1.0000
  16.700   2.0794   0.01869   0.01451  -0.0707   0.0036   1.0000
  16.800   2.0843   0.01898   0.01481  -0.0701   0.0036   1.0000
  16.900   2.0896   0.01926   0.01509  -0.0695   0.0036   1.0000
  17.000   2.0944   0.01957   0.01540  -0.0688   0.0036   1.0000
  17.100   2.0986   0.01991   0.01575  -0.0681   0.0036   1.0000
  17.200   2.1035   0.02023   0.01607  -0.0675   0.0036   1.0000
  17.300   2.1086   0.02054   0.01638  -0.0669   0.0036   1.0000
  17.400   2.1127   0.02090   0.01676  -0.0662   0.0036   1.0000
  17.500   2.1166   0.02128   0.01713  -0.0655   0.0036   1.0000
  17.600   2.1211   0.02162   0.01748  -0.0649   0.0036   1.0000
  17.700   2.1255   0.02198   0.01785  -0.0643   0.0036   1.0000
  17.800   2.1287   0.02242   0.01830  -0.0636   0.0035   1.0000
  17.900   2.1328   0.02281   0.01869  -0.0630   0.0035   1.0000
  18.000   2.1372   0.02319   0.01908  -0.0624   0.0035   1.0000
  18.100   2.1403   0.02366   0.01956  -0.0618   0.0035   1.0000
  18.200   2.1440   0.02410   0.02000  -0.0612   0.0035   1.0000
  18.300   2.1479   0.02453   0.02044  -0.0606   0.0035   1.0000
  18.400   2.1510   0.02501   0.02093  -0.0600   0.0035   1.0000
  18.500   2.1534   0.02555   0.02147  -0.0593   0.0034   1.0000
  18.600   2.1569   0.02600   0.02193  -0.0587   0.0034   1.0000
  18.700   2.1587   0.02660   0.02254  -0.0580   0.0034   1.0000
  18.800   2.1614   0.02714   0.02309  -0.0575   0.0033   1.0000
  18.900   2.1640   0.02770   0.02366  -0.0569   0.0033   1.0000
  19.000   2.1657   0.02834   0.02431  -0.0563   0.0033   1.0000
  19.100   2.1686   0.02891   0.02488  -0.0558   0.0033   1.0000
  19.200   2.1709   0.02951   0.02550  -0.0552   0.0032   1.0000
  19.300   2.1719   0.03026   0.02625  -0.0546   0.0032   1.0000
  19.400   2.1740   0.03090   0.02690  -0.0541   0.0031   1.0000
  19.500   2.1762   0.03155   0.02756  -0.0536   0.0031   1.0000
  19.600   2.1768   0.03234   0.02836  -0.0531   0.0031   1.0000
  19.700   2.1790   0.03298   0.02902  -0.0526   0.0030   1.0000
  19.800   2.1797   0.03378   0.02983  -0.0521   0.0030   1.0000
  19.900   2.1807   0.03458   0.03063  -0.0517   0.0029   1.0000
  20.000   2.1828   0.03526   0.03133  -0.0513   0.0029   1.0000
  20.100   2.1828   0.03618   0.03225  -0.0508   0.0029   1.0000
  20.200   2.1841   0.03696   0.03305  -0.0504   0.0028   1.0000
  20.300   2.1854   0.03776   0.03385  -0.0500   0.0028   1.0000
  20.400   2.1856   0.03870   0.03481  -0.0497   0.0028   1.0000
  20.500   2.1872   0.03948   0.03560  -0.0494   0.0027   1.0000
  20.600   2.1877   0.04038   0.03651  -0.0490   0.0027   1.0000
  20.700   2.1876   0.04136   0.03750  -0.0487   0.0027   1.0000
  20.800   2.1885   0.04218   0.03834  -0.0484   0.0026   1.0000
  20.900   2.1875   0.04328   0.03945  -0.0481   0.0026   1.0000
  21.000   2.1879   0.04419   0.04038  -0.0478   0.0025   1.0000
  21.100   2.1879   0.04518   0.04138  -0.0475   0.0025   1.0000
  21.200   2.1869   0.04631   0.04253  -0.0473   0.0025   1.0000
  21.300   2.1876   0.04722   0.04344  -0.0471   0.0025   1.0000
  21.400   2.1858   0.04845   0.04470  -0.0469   0.0024   1.0000
  21.500   2.1859   0.04946   0.04572  -0.0467   0.0024   1.0000
  21.600   2.1860   0.05046   0.04673  -0.0465   0.0024   1.0000
  21.700   2.1838   0.05178   0.04806  -0.0464   0.0024   1.0000
  21.800   2.1841   0.05276   0.04906  -0.0462   0.0024   1.0000
  21.900   2.1818   0.05408   0.05040  -0.0461   0.0024   1.0000
  22.000   2.1807   0.05522   0.05155  -0.0460   0.0024   1.0000
  22.100   2.1807   0.05622   0.05257  -0.0459   0.0024   1.0000
  22.200   2.1768   0.05776   0.05413  -0.0458   0.0024   1.0000
  22.300   2.1764   0.05885   0.05524  -0.0457   0.0024   1.0000
  22.400   2.1736   0.06026   0.05666  -0.0457   0.0024   1.0000
  22.500   2.1715   0.06159   0.05801  -0.0457   0.0024   1.0000
  22.600   2.1711   0.06268   0.05912  -0.0456   0.0024   1.0000
  22.700   2.1663   0.06438   0.06084  -0.0457   0.0024   1.0000
  22.800   2.1651   0.06559   0.06206  -0.0457   0.0024   1.0000
  22.900   2.1629   0.06693   0.06342  -0.0457   0.0024   1.0000
  23.000   2.1585   0.06859   0.06510  -0.0458   0.0024   1.0000
  23.100   2.1573   0.06979   0.06631  -0.0458   0.0024   1.0000
  23.200   2.1515   0.07158   0.06813  -0.0460   0.0024   1.0000
  23.300   2.1492   0.07295   0.06951  -0.0461   0.0024   1.0000
  23.400   2.1478   0.07419   0.07077  -0.0461   0.0024   1.0000
  23.500   2.1409   0.07620   0.07281  -0.0464   0.0024   1.0000
  23.600   2.1390   0.07752   0.07415  -0.0465   0.0024   1.0000
  23.700   2.1340   0.07929   0.07594  -0.0467   0.0024   1.0000
  23.800   2.1296   0.08097   0.07763  -0.0470   0.0024   1.0000
  23.900   2.1279   0.08228   0.07896  -0.0471   0.0024   1.0000
  24.000   2.1205   0.08439   0.08110  -0.0475   0.0024   1.0000
  24.100   2.1175   0.08589   0.08262  -0.0477   0.0024   1.0000
  24.200   2.1155   0.08721   0.08395  -0.0479   0.0024   1.0000
  24.300   2.1065   0.08951   0.08629  -0.0483   0.0024   1.0000
  24.400   2.1037   0.09097   0.08776  -0.0486   0.0024   1.0000
  24.500   2.1014   0.09236   0.08916  -0.0488   0.0024   1.0000
  24.600   2.0919   0.09479   0.09163  -0.0494   0.0024   1.0000
  24.700   2.0892   0.09626   0.09311  -0.0497   0.0024   1.0000
  24.800   2.0869   0.09767   0.09455  -0.0500   0.0024   1.0000
  24.900   2.0768   0.10024   0.09714  -0.0507   0.0024   1.0000
  25.000   2.0739   0.10174   0.09866  -0.0511   0.0024   1.0000
  25.100   2.0718   0.10314   0.10007  -0.0514   0.0024   1.0000
  25.200   2.0613   0.10579   0.10275  -0.0522   0.0024   1.0000
  25.300   2.0582   0.10730   0.10428  -0.0526   0.0024   1.0000
  25.400   2.0556   0.10873   0.10573  -0.0530   0.0024   1.0000
  25.500   2.0443   0.11147   0.10850  -0.0539   0.0023   1.0000
  25.600   2.0410   0.11305   0.11010  -0.0544   0.0023   1.0000
  25.700   2.0387   0.11447   0.11154  -0.0548   0.0023   1.0000
  25.800   2.0278   0.11723   0.11434  -0.0558   0.0023   1.0000
  25.900   2.0242   0.11888   0.11600  -0.0564   0.0023   1.0000
  26.000   2.0219   0.12033   0.11746  -0.0569   0.0023   1.0000
  26.100   2.0118   0.12300   0.12017  -0.0580   0.0023   1.0000
  26.200   2.0077   0.12475   0.12193  -0.0587   0.0023   1.0000
  26.300   2.0049   0.12630   0.12350  -0.0593   0.0023   1.0000
  26.400   1.9962   0.12878   0.12601  -0.0604   0.0023   1.0000
  26.500   1.9909   0.13074   0.12799  -0.0613   0.0023   1.0000
  26.600   1.9879   0.13228   0.12955  -0.0620   0.0023   1.0000
  26.700   1.9852   0.13378   0.13106  -0.0626   0.0023   1.0000
  26.800   1.9721   0.13698   0.13430  -0.0642   0.0022   1.0000
  26.900   1.9699   0.13844   0.13577  -0.0649   0.0022   1.0000
  27.000   1.9684   0.13981   0.13715  -0.0656   0.0023   1.0000
  27.100   1.9573   0.14276   0.14014  -0.0671   0.0023   1.0000
  27.200   1.9532   0.14455   0.14196  -0.0681   0.0022   1.0000
  27.300   1.9502   0.14618   0.14359  -0.0690   0.0022   1.0000
  27.400   1.9397   0.14909   0.14655  -0.0706   0.0022   1.0000
  27.500   1.9357   0.15090   0.14837  -0.0717   0.0022   1.0000
  27.600   1.9326   0.15256   0.15005  -0.0726   0.0022   1.0000
  27.700   1.9224   0.15547   0.15299  -0.0744   0.0022   1.0000
  27.800   1.9175   0.15746   0.15499  -0.0756   0.0021   1.0000
  27.900   1.9149   0.15906   0.15662  -0.0766   0.0021   1.0000
  28.000   1.9128   0.16059   0.15816  -0.0776   0.0021   1.0000
  28.100   1.9004   0.16394   0.16155  -0.0798   0.0021   1.0000
  28.200   1.8976   0.16556   0.16318  -0.0809   0.0021   1.0000
  28.300   1.8963   0.16691   0.16455  -0.0818   0.0021   1.0000
  28.500   1.8790   0.17228   0.16997  -0.0855   0.0020   1.0000
  28.600   1.8779   0.17364   0.17135  -0.0865   0.0021   1.0000
  28.800   1.8624   0.17883   0.17659  -0.0902   0.0020   1.0000
  28.900   1.8581   0.18080   0.17858  -0.0917   0.0020   1.0000
  29.000   1.8571   0.18217   0.17996  -0.0927   0.0020   1.0000
  29.100   1.8425   0.18612   0.18396  -0.0957   0.0020   1.0000
  29.200   1.8414   0.18755   0.18540  -0.0968   0.0020   1.0000
  29.300   1.8382   0.18935   0.18721  -0.0983   0.0019   1.0000
  29.400   1.8251   0.19311   0.19102  -0.1012   0.0019   1.0000
  29.500   1.8239   0.19455   0.19248  -0.1024   0.0020   1.0000
  29.600   1.8213   0.19625   0.19419  -0.1038   0.0019   1.0000
  29.700   1.8063   0.20047   0.19845  -0.1072   0.0019   1.0000
  29.800   1.8039   0.20216   0.20016  -0.1086   0.0019   1.0000
  29.900   1.8020   0.20376   0.20177  -0.1100   0.0019   1.0000
  30.000   1.8005   0.20529   0.20332  -0.1113   0.0019   1.0000
