  
       XFOIL         Version 6.99
  
 Calculated polar for: NACA 4412                                       
  
 1 1 Reynolds number fixed          Mach number fixed         
  
 xtrf =   1.000 (top)        1.000 (bottom)  
 Mach =   0.000     Re =    53.000 e 6     Ncrit =   9.000
  
   alpha    CL        CD       CDp       CM     Top_Xtr  Bot_Xtr
  ------ -------- --------- --------- -------- -------- --------
  -4.900  -0.0856   0.00506   0.00106  -0.1023   0.4346   0.0180
  -4.800  -0.0740   0.00504   0.00104  -0.1024   0.4314   0.0187
  -4.700  -0.0623   0.00503   0.00102  -0.1025   0.4282   0.0193
  -4.600  -0.0505   0.00500   0.00100  -0.1025   0.4257   0.0199
  -4.500  -0.0388   0.00498   0.00098  -0.1026   0.4252   0.0203
  -4.400  -0.0270   0.00496   0.00096  -0.1027   0.4245   0.0206
  -4.300  -0.0153   0.00494   0.00095  -0.1028   0.4231   0.0208
  -4.200  -0.0036   0.00493   0.00093  -0.1029   0.4214   0.0209
  -4.100   0.0081   0.00493   0.00092  -0.1030   0.4188   0.0214
  -4.000   0.0198   0.00491   0.00091  -0.1030   0.4166   0.0230
  -3.900   0.0315   0.00489   0.00089  -0.1031   0.4130   0.0238
  -3.800   0.0432   0.00487   0.00088  -0.1032   0.4104   0.0243
  -3.700   0.0550   0.00486   0.00086  -0.1033   0.4094   0.0246
  -3.600   0.0668   0.00484   0.00085  -0.1034   0.4091   0.0247
  -3.500   0.0786   0.00483   0.00084  -0.1035   0.4086   0.0254
  -3.400   0.0903   0.00481   0.00082  -0.1036   0.4077   0.0266
  -3.300   0.1020   0.00480   0.00081  -0.1036   0.4051   0.0274
  -3.200   0.1136   0.00480   0.00080  -0.1037   0.4018   0.0283
  -3.100   0.1253   0.00479   0.00080  -0.1038   0.3981   0.0289
  -3.000   0.1370   0.00478   0.00079  -0.1039   0.3950   0.0291
  -2.900   0.1488   0.00477   0.00077  -0.1040   0.3936   0.0300
  -2.800   0.1606   0.00475   0.00076  -0.1041   0.3927   0.0322
  -2.700   0.1723   0.00474   0.00075  -0.1041   0.3910   0.0334
  -2.600   0.1839   0.00474   0.00075  -0.1042   0.3877   0.0339
  -2.500   0.1955   0.00475   0.00074  -0.1043   0.3840   0.0341
  -2.400   0.2072   0.00475   0.00074  -0.1044   0.3794   0.0352
  -2.300   0.2190   0.00474   0.00073  -0.1045   0.3778   0.0367
  -2.200   0.2307   0.00472   0.00072  -0.1045   0.3770   0.0386
  -2.100   0.2424   0.00471   0.00071  -0.1046   0.3751   0.0397
  -2.000   0.2540   0.00472   0.00071  -0.1047   0.3712   0.0399
  -1.900   0.2656   0.00473   0.00072  -0.1048   0.3660   0.0421
  -1.800   0.2773   0.00472   0.00070  -0.1049   0.3625   0.0442
  -1.700   0.2891   0.00471   0.00070  -0.1049   0.3615   0.0457
  -1.600   0.3008   0.00470   0.00070  -0.1050   0.3597   0.0464
  -1.500   0.3123   0.00472   0.00070  -0.1051   0.3550   0.0476
  -1.400   0.3239   0.00472   0.00070  -0.1051   0.3494   0.0512
  -1.300   0.3356   0.00471   0.00069  -0.1052   0.3468   0.0531
  -1.200   0.3473   0.00471   0.00069  -0.1053   0.3458   0.0541
  -1.100   0.3589   0.00472   0.00070  -0.1054   0.3427   0.0547
  -1.000   0.3704   0.00474   0.00070  -0.1055   0.3371   0.0567
  -0.900   0.3820   0.00473   0.00070  -0.1055   0.3321   0.0610
  -0.800   0.3937   0.00473   0.00070  -0.1056   0.3305   0.0628
  -0.700   0.4053   0.00474   0.00070  -0.1057   0.3276   0.0633
  -0.600   0.4168   0.00477   0.00071  -0.1057   0.3220   0.0658
  -0.500   0.4284   0.00477   0.00071  -0.1058   0.3164   0.0692
  -0.400   0.4401   0.00476   0.00071  -0.1059   0.3151   0.0731
  -0.300   0.4516   0.00478   0.00072  -0.1060   0.3115   0.0736
  -0.200   0.4631   0.00480   0.00074  -0.1060   0.3058   0.0763
  -0.100   0.4747   0.00481   0.00074  -0.1061   0.3007   0.0795
   0.000   0.4863   0.00480   0.00074  -0.1062   0.2990   0.0835
   0.100   0.4977   0.00483   0.00075  -0.1062   0.2944   0.0852
   0.200   0.5092   0.00486   0.00077  -0.1063   0.2865   0.0877
   0.300   0.5208   0.00486   0.00077  -0.1063   0.2846   0.0916
   0.400   0.5324   0.00486   0.00077  -0.1064   0.2823   0.0951
   0.500   0.5436   0.00490   0.00080  -0.1064   0.2729   0.0977
   0.600   0.5552   0.00492   0.00080  -0.1065   0.2698   0.0985
   0.700   0.5666   0.00494   0.00082  -0.1065   0.2654   0.1049
   0.800   0.5780   0.00497   0.00084  -0.1066   0.2580   0.1084
   0.900   0.5895   0.00498   0.00084  -0.1066   0.2542   0.1111
   1.000   0.6009   0.00501   0.00086  -0.1067   0.2501   0.1131
   1.100   0.6122   0.00505   0.00089  -0.1067   0.2414   0.1186
   1.200   0.6238   0.00505   0.00089  -0.1068   0.2392   0.1238
   1.300   0.6350   0.00508   0.00091  -0.1068   0.2341   0.1261
   1.400   0.6464   0.00512   0.00093  -0.1068   0.2255   0.1268
   1.500   0.6577   0.00515   0.00095  -0.1069   0.2213   0.1354
   1.600   0.6689   0.00519   0.00098  -0.1069   0.2120   0.1398
   1.700   0.6804   0.00520   0.00098  -0.1070   0.2101   0.1416
   1.800   0.6917   0.00524   0.00101  -0.1070   0.2059   0.1442
   1.900   0.7029   0.00528   0.00103  -0.1070   0.1960   0.1529
   2.000   0.7141   0.00532   0.00106  -0.1070   0.1915   0.1566
   2.100   0.7254   0.00536   0.00109  -0.1070   0.1858   0.1577
   2.200   0.7368   0.00538   0.00110  -0.1071   0.1807   0.1620
   2.300   0.7480   0.00542   0.00113  -0.1071   0.1762   0.1694
   2.400   0.7592   0.00546   0.00116  -0.1071   0.1680   0.1734
   2.500   0.7706   0.00549   0.00118  -0.1072   0.1655   0.1751
   2.600   0.7816   0.00555   0.00121  -0.1072   0.1582   0.1805
   2.700   0.7930   0.00557   0.00123  -0.1072   0.1526   0.1870
   2.800   0.8042   0.00562   0.00126  -0.1072   0.1485   0.1898
   2.900   0.8152   0.00567   0.00130  -0.1072   0.1396   0.1967
   3.000   0.8266   0.00569   0.00132  -0.1073   0.1374   0.2028
   3.100   0.8376   0.00575   0.00136  -0.1072   0.1317   0.2061
   3.200   0.8489   0.00578   0.00139  -0.1073   0.1267   0.2105
   3.300   0.8603   0.00580   0.00140  -0.1073   0.1243   0.2189
   3.400   0.8710   0.00588   0.00146  -0.1073   0.1147   0.2218
   3.500   0.8824   0.00590   0.00147  -0.1073   0.1118   0.2255
   3.600   0.8936   0.00594   0.00150  -0.1073   0.1093   0.2309
   3.700   0.9045   0.00600   0.00155  -0.1073   0.1025   0.2383
   3.900   0.9270   0.00606   0.00160  -0.1074   0.0967   0.2500
   4.000   0.9379   0.00612   0.00165  -0.1073   0.0901   0.2551
   4.200   0.9602   0.00620   0.00171  -0.1074   0.0845   0.2650
   4.400   0.9824   0.00628   0.00178  -0.1074   0.0761   0.2765
   4.500   0.9935   0.00633   0.00182  -0.1074   0.0736   0.2848
   4.600   1.0044   0.00638   0.00187  -0.1074   0.0696   0.2905
   4.700   1.0155   0.00642   0.00190  -0.1074   0.0654   0.2953
   4.800   1.0267   0.00645   0.00193  -0.1074   0.0648   0.3053
   4.900   1.0376   0.00651   0.00198  -0.1074   0.0615   0.3082
   5.000   1.0485   0.00656   0.00202  -0.1073   0.0561   0.3180
   5.100   1.0597   0.00658   0.00205  -0.1074   0.0557   0.3239
   5.200   1.0705   0.00666   0.00211  -0.1073   0.0524   0.3275
   5.300   1.0815   0.00669   0.00215  -0.1073   0.0500   0.3382
   5.400   1.0927   0.00673   0.00218  -0.1074   0.0478   0.3454
   5.500   1.1038   0.00676   0.00222  -0.1074   0.0470   0.3533
   5.600   1.1145   0.00683   0.00227  -0.1073   0.0440   0.3596
   5.700   1.1254   0.00687   0.00232  -0.1073   0.0409   0.3691
   5.800   1.1365   0.00690   0.00236  -0.1073   0.0400   0.3772
   5.900   1.1474   0.00694   0.00240  -0.1073   0.0386   0.3915
   6.000   1.1582   0.00700   0.00245  -0.1073   0.0367   0.3938
   6.100   1.1692   0.00704   0.00249  -0.1073   0.0346   0.4071
   6.200   1.1802   0.00707   0.00253  -0.1073   0.0339   0.4175
   6.300   1.1911   0.00711   0.00258  -0.1073   0.0330   0.4271
   6.400   1.2017   0.00717   0.00264  -0.1072   0.0303   0.4433
   6.500   1.2127   0.00721   0.00269  -0.1072   0.0288   0.4518
   6.600   1.2237   0.00724   0.00273  -0.1072   0.0284   0.4605
   6.700   1.2345   0.00729   0.00278  -0.1072   0.0277   0.4707
   6.800   1.2452   0.00734   0.00283  -0.1072   0.0264   0.4796
   7.000   1.2669   0.00743   0.00293  -0.1071   0.0241   0.5000
   7.100   1.2778   0.00746   0.00297  -0.1071   0.0236   0.5115
   7.200   1.2886   0.00751   0.00303  -0.1071   0.0231   0.5226
   7.300   1.2991   0.00757   0.00309  -0.1070   0.0215   0.5323
   7.500   1.3207   0.00766   0.00319  -0.1070   0.0199   0.5531
   7.600   1.3314   0.00770   0.00324  -0.1070   0.0197   0.5632
   7.700   1.3421   0.00775   0.00330  -0.1069   0.0191   0.5747
   7.800   1.3526   0.00781   0.00336  -0.1069   0.0183   0.5833
   7.900   1.3633   0.00785   0.00342  -0.1068   0.0176   0.5964
   8.000   1.3740   0.00790   0.00347  -0.1068   0.0168   0.6059
   8.100   1.3847   0.00794   0.00352  -0.1068   0.0165   0.6158
   8.300   1.4059   0.00804   0.00364  -0.1067   0.0159   0.6425
   8.400   1.4163   0.00810   0.00371  -0.1066   0.0153   0.6534
   8.500   1.4267   0.00816   0.00377  -0.1065   0.0144   0.6670
   8.700   1.4478   0.00824   0.00389  -0.1064   0.0135   0.6967
   8.800   1.4584   0.00829   0.00395  -0.1064   0.0134   0.7098
   8.900   1.4689   0.00833   0.00401  -0.1063   0.0132   0.7252
   9.000   1.4793   0.00838   0.00408  -0.1063   0.0129   0.7417
   9.100   1.4896   0.00843   0.00415  -0.1062   0.0125   0.7595
   9.200   1.4999   0.00848   0.00422  -0.1061   0.0121   0.7809
   9.300   1.5102   0.00852   0.00429  -0.1060   0.0116   0.8019
   9.400   1.5205   0.00856   0.00436  -0.1059   0.0111   0.8243
   9.500   1.5309   0.00859   0.00443  -0.1058   0.0109   0.8509
   9.600   1.5412   0.00863   0.00449  -0.1058   0.0109   0.8715
   9.700   1.5515   0.00866   0.00456  -0.1057   0.0108   0.8942
   9.800   1.5616   0.00869   0.00463  -0.1055   0.0106   0.9200
   9.900   1.5712   0.00874   0.00472  -0.1053   0.0103   0.9461
  10.000   1.5794   0.00876   0.00480  -0.1048   0.0099   0.9796
  10.100   1.5896   0.00883   0.00488  -0.1046   0.0095   1.0000
  10.200   1.5997   0.00891   0.00495  -0.1045   0.0091   1.0000
  10.300   1.6097   0.00898   0.00502  -0.1044   0.0088   1.0000
  10.400   1.6199   0.00905   0.00508  -0.1043   0.0087   1.0000
  10.500   1.6300   0.00912   0.00515  -0.1041   0.0086   1.0000
  10.600   1.6400   0.00920   0.00522  -0.1040   0.0086   1.0000
  10.700   1.6500   0.00927   0.00529  -0.1039   0.0085   1.0000
  10.800   1.6600   0.00935   0.00536  -0.1037   0.0085   1.0000
  10.900   1.6698   0.00944   0.00544  -0.1036   0.0083   1.0000
  11.000   1.6795   0.00953   0.00552  -0.1034   0.0081   1.0000
  11.100   1.6891   0.00962   0.00561  -0.1032   0.0079   1.0000
  11.200   1.6987   0.00971   0.00570  -0.1030   0.0077   1.0000
  11.300   1.7083   0.00980   0.00578  -0.1028   0.0075   1.0000
  11.400   1.7180   0.00989   0.00586  -0.1026   0.0072   1.0000
  11.500   1.7276   0.00998   0.00594  -0.1024   0.0070   1.0000
  11.600   1.7371   0.01007   0.00603  -0.1022   0.0068   1.0000
  11.700   1.7467   0.01015   0.00610  -0.1020   0.0067   1.0000
  11.800   1.7563   0.01023   0.00618  -0.1018   0.0067   1.0000
  11.900   1.7658   0.01032   0.00626  -0.1016   0.0067   1.0000
  12.000   1.7753   0.01040   0.00635  -0.1013   0.0066   1.0000
  12.100   1.7847   0.01049   0.00643  -0.1011   0.0066   1.0000
  12.200   1.7940   0.01058   0.00652  -0.1009   0.0066   1.0000
  12.300   1.8032   0.01068   0.00661  -0.1006   0.0065   1.0000
  12.400   1.8122   0.01078   0.00671  -0.1003   0.0063   1.0000
  12.500   1.8209   0.01090   0.00682  -0.1000   0.0061   1.0000
  12.600   1.8296   0.01102   0.00693  -0.0996   0.0060   1.0000
  12.700   1.8384   0.01112   0.00703  -0.0993   0.0058   1.0000
  12.800   1.8472   0.01124   0.00714  -0.0989   0.0057   1.0000
  12.900   1.8559   0.01134   0.00724  -0.0986   0.0055   1.0000
  13.000   1.8646   0.01145   0.00734  -0.0983   0.0053   1.0000
  13.100   1.8732   0.01155   0.00745  -0.0979   0.0052   1.0000
  13.200   1.8817   0.01166   0.00755  -0.0975   0.0051   1.0000
  13.300   1.8901   0.01176   0.00765  -0.0971   0.0050   1.0000
  13.400   1.8983   0.01186   0.00775  -0.0967   0.0050   1.0000
  13.500   1.9064   0.01197   0.00785  -0.0962   0.0050   1.0000
  13.600   1.9144   0.01207   0.00795  -0.0958   0.0050   1.0000
  13.700   1.9221   0.01218   0.00806  -0.0952   0.0050   1.0000
  13.800   1.9291   0.01228   0.00816  -0.0946   0.0050   1.0000
  13.900   1.9356   0.01240   0.00827  -0.0938   0.0050   1.0000
  14.000   1.9420   0.01251   0.00839  -0.0930   0.0049   1.0000
  14.100   1.9481   0.01263   0.00851  -0.0922   0.0049   1.0000
  14.200   1.9544   0.01276   0.00864  -0.0914   0.0049   1.0000
  14.300   1.9610   0.01289   0.00877  -0.0907   0.0048   1.0000
  14.400   1.9675   0.01303   0.00890  -0.0899   0.0048   1.0000
  14.500   1.9735   0.01317   0.00905  -0.0891   0.0048   1.0000
  14.600   1.9794   0.01333   0.00921  -0.0883   0.0047   1.0000
  14.700   1.9856   0.01349   0.00937  -0.0876   0.0046   1.0000
  14.800   1.9919   0.01365   0.00953  -0.0869   0.0045   1.0000
  14.900   1.9975   0.01382   0.00970  -0.0861   0.0044   1.0000
  15.000   2.0032   0.01400   0.00988  -0.0852   0.0044   1.0000
  15.100   2.0093   0.01417   0.01005  -0.0845   0.0043   1.0000
  15.200   2.0154   0.01435   0.01023  -0.0838   0.0042   1.0000
  15.300   2.0212   0.01454   0.01042  -0.0831   0.0041   1.0000
  15.400   2.0269   0.01473   0.01061  -0.0823   0.0041   1.0000
  15.500   2.0328   0.01491   0.01079  -0.0816   0.0040   1.0000
  15.600   2.0389   0.01510   0.01098  -0.0810   0.0039   1.0000
  15.700   2.0444   0.01531   0.01119  -0.0802   0.0038   1.0000
  15.800   2.0498   0.01552   0.01141  -0.0795   0.0037   1.0000
  15.900   2.0556   0.01573   0.01161  -0.0788   0.0036   1.0000
  16.000   2.0617   0.01593   0.01182  -0.0782   0.0036   1.0000
