  
       XFOIL         Version 6.99
  
 Calculated polar for: NACA 4412                                       
  
 1 1 Reynolds number fixed          Mach number fixed         
  
 xtrf =   1.000 (top)        1.000 (bottom)  
 Mach =   0.000     Re =    29.000 e 6     Ncrit =   9.000
  
   alpha    CL        CD       CDp       CM     Top_Xtr  Bot_Xtr
  ------ -------- --------- --------- -------- -------- --------
  -4.800  -0.0729   0.00529   0.00110  -0.1024   0.4883   0.0208
  -4.600  -0.0497   0.00527   0.00107  -0.1025   0.4812   0.0221
  -4.400  -0.0264   0.00523   0.00103  -0.1027   0.4734   0.0238
  -4.200  -0.0030   0.00520   0.00099  -0.1028   0.4693   0.0246
  -4.000   0.0202   0.00518   0.00096  -0.1030   0.4615   0.0260
  -3.800   0.0436   0.00514   0.00092  -0.1031   0.4568   0.0280
  -3.600   0.0670   0.00511   0.00090  -0.1033   0.4527   0.0290
  -3.400   0.0902   0.00510   0.00088  -0.1034   0.4459   0.0306
  -3.200   0.1136   0.00506   0.00084  -0.1036   0.4413   0.0331
  -3.000   0.1371   0.00503   0.00082  -0.1038   0.4389   0.0343
  -2.800   0.1604   0.00501   0.00080  -0.1039   0.4344   0.0375
  -2.600   0.1837   0.00500   0.00078  -0.1041   0.4282   0.0397
  -2.400   0.2072   0.00497   0.00076  -0.1042   0.4250   0.0430
  -2.200   0.2306   0.00494   0.00074  -0.1044   0.4226   0.0461
  -2.000   0.2539   0.00493   0.00073  -0.1046   0.4180   0.0482
  -1.800   0.2772   0.00491   0.00071  -0.1047   0.4127   0.0536
  -1.600   0.3007   0.00489   0.00070  -0.1049   0.4093   0.0563
  -1.400   0.3242   0.00486   0.00069  -0.1051   0.4078   0.0616
  -1.200   0.3475   0.00486   0.00068  -0.1052   0.4031   0.0642
  -1.000   0.3707   0.00486   0.00068  -0.1054   0.3954   0.0709
  -0.800   0.3941   0.00485   0.00068  -0.1056   0.3927   0.0745
  -0.600   0.4174   0.00483   0.00067  -0.1057   0.3883   0.0833
  -0.400   0.4404   0.00486   0.00069  -0.1058   0.3785   0.0869
  -0.200   0.4638   0.00484   0.00068  -0.1060   0.3753   0.0954
   0.000   0.4868   0.00487   0.00070  -0.1061   0.3676   0.1017
   0.200   0.5100   0.00487   0.00070  -0.1063   0.3614   0.1103
   0.400   0.5329   0.00491   0.00073  -0.1064   0.3527   0.1178
   0.600   0.5561   0.00491   0.00074  -0.1065   0.3459   0.1262
   0.800   0.5788   0.00496   0.00077  -0.1066   0.3354   0.1354
   1.000   0.6019   0.00497   0.00078  -0.1068   0.3292   0.1419
   1.200   0.6246   0.00502   0.00082  -0.1068   0.3162   0.1555
   1.400   0.6473   0.00507   0.00085  -0.1069   0.3080   0.1647
   1.600   0.6701   0.00511   0.00088  -0.1070   0.2977   0.1731
   1.800   0.6926   0.00518   0.00092  -0.1071   0.2850   0.1832
   2.000   0.7150   0.00526   0.00098  -0.1071   0.2705   0.1934
   2.200   0.7373   0.00534   0.00103  -0.1071   0.2577   0.2060
   2.400   0.7597   0.00541   0.00108  -0.1071   0.2464   0.2190
   2.600   0.7818   0.00551   0.00115  -0.1071   0.2315   0.2294
   2.800   0.8041   0.00559   0.00121  -0.1071   0.2188   0.2415
   3.000   0.8262   0.00569   0.00127  -0.1071   0.2046   0.2566
   3.200   0.8480   0.00581   0.00136  -0.1071   0.1884   0.2683
   3.400   0.8704   0.00588   0.00141  -0.1071   0.1786   0.2858
   3.800   0.9143   0.00609   0.00157  -0.1070   0.1527   0.3149
   4.000   0.9360   0.00621   0.00166  -0.1070   0.1386   0.3340
   4.200   0.9577   0.00632   0.00175  -0.1069   0.1256   0.3518
   4.600   1.0012   0.00653   0.00194  -0.1068   0.1060   0.3940
   5.000   1.0447   0.00669   0.00212  -0.1067   0.0873   0.4592
   5.200   1.0661   0.00681   0.00224  -0.1066   0.0771   0.4890
   5.400   1.0879   0.00689   0.00233  -0.1066   0.0723   0.5143
   5.600   1.1095   0.00699   0.00244  -0.1065   0.0643   0.5449
   5.800   1.1309   0.00711   0.00256  -0.1064   0.0567   0.5693
   6.000   1.1523   0.00721   0.00267  -0.1064   0.0518   0.5984
   6.200   1.1740   0.00729   0.00277  -0.1063   0.0470   0.6282
   6.400   1.1952   0.00740   0.00289  -0.1062   0.0424   0.6532
   6.600   1.2169   0.00747   0.00299  -0.1062   0.0395   0.6838
   6.800   1.2380   0.00758   0.00313  -0.1060   0.0344   0.7172
   7.000   1.2594   0.00766   0.00324  -0.1060   0.0326   0.7502
   7.200   1.2805   0.00775   0.00337  -0.1058   0.0293   0.7870
   7.400   1.3018   0.00780   0.00348  -0.1058   0.0281   0.8280
   7.600   1.3226   0.00790   0.00362  -0.1056   0.0256   0.8693
   7.800   1.3434   0.00795   0.00375  -0.1054   0.0237   0.9149
   8.000   1.3625   0.00801   0.00389  -0.1048   0.0220   0.9655
   8.200   1.3831   0.00811   0.00401  -0.1045   0.0201   1.0000
   8.400   1.4041   0.00824   0.00413  -0.1044   0.0195   1.0000
   8.600   1.4247   0.00840   0.00427  -0.1042   0.0182   1.0000
   8.800   1.4453   0.00855   0.00440  -0.1040   0.0166   1.0000
   9.000   1.4660   0.00869   0.00453  -0.1038   0.0161   1.0000
   9.200   1.4862   0.00887   0.00468  -0.1035   0.0149   1.0000
   9.400   1.5065   0.00903   0.00483  -0.1033   0.0137   1.0000
   9.600   1.5269   0.00917   0.00496  -0.1030   0.0134   1.0000
   9.800   1.5471   0.00933   0.00510  -0.1028   0.0130   1.0000
  10.000   1.5668   0.00951   0.00527  -0.1024   0.0123   1.0000
  10.200   1.5864   0.00969   0.00543  -0.1021   0.0114   1.0000
  10.400   1.6062   0.00985   0.00559  -0.1018   0.0109   1.0000
  10.600   1.6259   0.01002   0.00574  -0.1014   0.0107   1.0000
  10.800   1.6450   0.01021   0.00592  -0.1010   0.0102   1.0000
  11.000   1.6638   0.01041   0.00611  -0.1005   0.0096   1.0000
  11.200   1.6827   0.01061   0.00629  -0.1001   0.0089   1.0000
  11.400   1.7016   0.01079   0.00647  -0.0996   0.0087   1.0000
  11.600   1.7203   0.01097   0.00664  -0.0991   0.0086   1.0000
  11.800   1.7387   0.01116   0.00683  -0.0986   0.0084   1.0000
  12.000   1.7567   0.01137   0.00703  -0.0980   0.0081   1.0000
  12.200   1.7740   0.01161   0.00725  -0.0973   0.0078   1.0000
  12.400   1.7912   0.01184   0.00748  -0.0965   0.0074   1.0000
  12.600   1.8080   0.01206   0.00770  -0.0957   0.0069   1.0000
  12.800   1.8244   0.01228   0.00791  -0.0948   0.0067   1.0000
  13.000   1.8403   0.01250   0.00812  -0.0939   0.0067   1.0000
  13.200   1.8543   0.01272   0.00835  -0.0925   0.0066   1.0000
  13.400   1.8674   0.01297   0.00859  -0.0910   0.0065   1.0000
  13.600   1.8801   0.01325   0.00888  -0.0895   0.0063   1.0000
  13.800   1.8926   0.01355   0.00918  -0.0879   0.0061   1.0000
  14.000   1.9051   0.01388   0.00950  -0.0864   0.0059   1.0000
  14.200   1.9173   0.01422   0.00984  -0.0850   0.0056   1.0000
  14.400   1.9297   0.01455   0.01018  -0.0835   0.0053   1.0000
  14.600   1.9420   0.01491   0.01054  -0.0821   0.0051   1.0000
  14.800   1.9543   0.01528   0.01091  -0.0808   0.0050   1.0000
  15.000   1.9667   0.01565   0.01129  -0.0795   0.0050   1.0000
  15.200   1.9784   0.01606   0.01170  -0.0781   0.0050   1.0000
  15.400   1.9907   0.01647   0.01211  -0.0769   0.0050   1.0000
  15.600   2.0013   0.01693   0.01259  -0.0754   0.0049   1.0000
  15.800   2.0128   0.01740   0.01306  -0.0742   0.0049   1.0000
  16.000   2.0227   0.01794   0.01362  -0.0727   0.0048   1.0000
