  
       XFOIL         Version 6.99
  
 Calculated polar for: NACA 4412                                       
  
 1 1 Reynolds number fixed          Mach number fixed         
  
 xtrf =   1.000 (top)        1.000 (bottom)  
 Mach =   0.000     Re =    27.000 e 6     Ncrit =   9.000
  
   alpha    CL        CD       CDp       CM     Top_Xtr  Bot_Xtr
  ------ -------- --------- --------- -------- -------- --------
  -4.800  -0.0728   0.00533   0.00112  -0.1024   0.4946   0.0210
  -4.600  -0.0495   0.00529   0.00107  -0.1026   0.4885   0.0227
  -4.400  -0.0263   0.00526   0.00103  -0.1027   0.4815   0.0242
  -4.200  -0.0030   0.00524   0.00100  -0.1028   0.4736   0.0247
  -4.000   0.0204   0.00520   0.00097  -0.1030   0.4699   0.0267
  -3.800   0.0436   0.00518   0.00093  -0.1031   0.4620   0.0284
  -3.600   0.0670   0.00515   0.00090  -0.1033   0.4570   0.0291
  -3.400   0.0904   0.00512   0.00088  -0.1034   0.4530   0.0316
  -3.200   0.1136   0.00510   0.00085  -0.1036   0.4474   0.0337
  -3.000   0.1370   0.00508   0.00083  -0.1037   0.4415   0.0352
  -2.800   0.1604   0.00504   0.00080  -0.1039   0.4393   0.0384
  -2.600   0.1838   0.00502   0.00078  -0.1040   0.4349   0.0400
  -2.400   0.2070   0.00501   0.00077  -0.1042   0.4286   0.0442
  -2.200   0.2305   0.00498   0.00074  -0.1044   0.4250   0.0464
  -2.000   0.2540   0.00496   0.00073  -0.1045   0.4228   0.0499
  -1.800   0.2772   0.00494   0.00071  -0.1047   0.4188   0.0541
  -1.600   0.3006   0.00493   0.00071  -0.1049   0.4133   0.0583
  -1.400   0.3240   0.00490   0.00069  -0.1050   0.4094   0.0626
  -1.200   0.3475   0.00489   0.00068  -0.1052   0.4079   0.0669
  -1.000   0.3707   0.00487   0.00068  -0.1054   0.4035   0.0727
  -0.800   0.3939   0.00489   0.00068  -0.1055   0.3958   0.0776
  -0.600   0.4173   0.00486   0.00067  -0.1057   0.3928   0.0847
  -0.400   0.4405   0.00487   0.00068  -0.1058   0.3880   0.0905
  -0.200   0.4636   0.00488   0.00069  -0.1060   0.3782   0.0974
   0.000   0.4869   0.00487   0.00069  -0.1061   0.3760   0.1054
   0.200   0.5098   0.00490   0.00071  -0.1062   0.3673   0.1117
   0.400   0.5331   0.00490   0.00072  -0.1064   0.3610   0.1218
   0.600   0.5560   0.00493   0.00074  -0.1065   0.3530   0.1276
   0.800   0.5790   0.00494   0.00075  -0.1066   0.3452   0.1398
   1.000   0.6018   0.00500   0.00079  -0.1067   0.3346   0.1456
   1.200   0.6248   0.00501   0.00080  -0.1069   0.3280   0.1574
   1.400   0.6474   0.00506   0.00084  -0.1069   0.3158   0.1710
   1.600   0.6700   0.00513   0.00089  -0.1070   0.3039   0.1758
   1.800   0.6928   0.00517   0.00092  -0.1071   0.2955   0.1886
   2.000   0.7153   0.00523   0.00096  -0.1071   0.2828   0.2018
   2.200   0.7376   0.00531   0.00101  -0.1071   0.2693   0.2106
   2.400   0.7599   0.00539   0.00107  -0.1072   0.2552   0.2233
   2.800   0.8041   0.00558   0.00120  -0.1071   0.2261   0.2525
   3.000   0.8262   0.00569   0.00127  -0.1071   0.2114   0.2633
   3.200   0.8481   0.00580   0.00134  -0.1071   0.1962   0.2743
   3.400   0.8701   0.00590   0.00142  -0.1070   0.1846   0.2919
   3.600   0.8920   0.00600   0.00150  -0.1070   0.1720   0.3086
   3.800   0.9140   0.00610   0.00157  -0.1070   0.1602   0.3254
   4.000   0.9356   0.00622   0.00167  -0.1069   0.1457   0.3431
   4.200   0.9576   0.00632   0.00175  -0.1069   0.1345   0.3653
   4.600   1.0010   0.00651   0.00193  -0.1068   0.1116   0.4183
   4.800   1.0226   0.00662   0.00204  -0.1067   0.0998   0.4505
   5.000   1.0442   0.00671   0.00214  -0.1066   0.0928   0.4807
   5.200   1.0657   0.00681   0.00225  -0.1066   0.0827   0.5125
   5.400   1.0875   0.00689   0.00234  -0.1065   0.0754   0.5399
   5.600   1.1087   0.00701   0.00247  -0.1064   0.0656   0.5717
   5.800   1.1302   0.00712   0.00258  -0.1063   0.0605   0.5962
   6.200   1.1731   0.00732   0.00281  -0.1062   0.0478   0.6557
   6.400   1.1945   0.00741   0.00292  -0.1061   0.0448   0.6861
   6.600   1.2159   0.00749   0.00304  -0.1060   0.0403   0.7187
   6.800   1.2370   0.00759   0.00317  -0.1059   0.0368   0.7556
   7.000   1.2584   0.00766   0.00328  -0.1058   0.0336   0.7915
   7.200   1.2793   0.00775   0.00342  -0.1057   0.0309   0.8346
   7.400   1.3005   0.00780   0.00354  -0.1055   0.0286   0.8761
   7.600   1.3211   0.00787   0.00367  -0.1053   0.0269   0.9215
   7.800   1.3400   0.00793   0.00381  -0.1047   0.0240   0.9696
   8.000   1.3610   0.00803   0.00392  -0.1045   0.0228   1.0000
   8.200   1.3818   0.00819   0.00406  -0.1043   0.0208   1.0000
   8.400   1.4028   0.00832   0.00418  -0.1042   0.0198   1.0000
   8.600   1.4235   0.00847   0.00431  -0.1040   0.0189   1.0000
   8.800   1.4439   0.00864   0.00445  -0.1037   0.0172   1.0000
   9.000   1.4646   0.00878   0.00458  -0.1035   0.0164   1.0000
   9.200   1.4849   0.00895   0.00473  -0.1033   0.0155   1.0000
   9.400   1.5050   0.00912   0.00488  -0.1030   0.0143   1.0000
   9.600   1.5253   0.00927   0.00502  -0.1027   0.0135   1.0000
   9.800   1.5455   0.00942   0.00516  -0.1025   0.0133   1.0000
  10.000   1.5653   0.00960   0.00532  -0.1022   0.0127   1.0000
  10.200   1.5848   0.00979   0.00550  -0.1018   0.0119   1.0000
  10.400   1.6043   0.00996   0.00566  -0.1014   0.0110   1.0000
  10.600   1.6240   0.01013   0.00581  -0.1011   0.0108   1.0000
  10.800   1.6432   0.01031   0.00598  -0.1007   0.0105   1.0000
  11.000   1.6620   0.01051   0.00618  -0.1002   0.0099   1.0000
  11.200   1.6806   0.01072   0.00637  -0.0997   0.0093   1.0000
  11.400   1.6992   0.01091   0.00655  -0.0992   0.0087   1.0000
  11.600   1.7179   0.01110   0.00673  -0.0987   0.0086   1.0000
  11.800   1.7363   0.01129   0.00692  -0.0982   0.0085   1.0000
  12.000   1.7543   0.01149   0.00711  -0.0976   0.0083   1.0000
  12.200   1.7717   0.01172   0.00733  -0.0969   0.0080   1.0000
  12.400   1.7886   0.01196   0.00756  -0.0961   0.0076   1.0000
  12.600   1.8050   0.01220   0.00780  -0.0952   0.0072   1.0000
  12.800   1.8210   0.01243   0.00802  -0.0942   0.0068   1.0000
  13.000   1.8360   0.01265   0.00824  -0.0931   0.0067   1.0000
  13.200   1.8497   0.01288   0.00847  -0.0917   0.0067   1.0000
  13.400   1.8629   0.01313   0.00872  -0.0902   0.0066   1.0000
  13.600   1.8762   0.01340   0.00900  -0.0888   0.0064   1.0000
  13.800   1.8888   0.01370   0.00930  -0.0873   0.0063   1.0000
  14.000   1.9014   0.01403   0.00962  -0.0858   0.0060   1.0000
  14.200   1.9132   0.01439   0.00998  -0.0843   0.0058   1.0000
  14.400   1.9256   0.01474   0.01034  -0.0829   0.0056   1.0000
  14.600   1.9374   0.01512   0.01072  -0.0814   0.0053   1.0000
  14.800   1.9497   0.01550   0.01110  -0.0801   0.0051   1.0000
  15.000   1.9613   0.01590   0.01151  -0.0787   0.0050   1.0000
  15.200   1.9735   0.01631   0.01192  -0.0774   0.0050   1.0000
  15.400   1.9850   0.01674   0.01237  -0.0761   0.0050   1.0000
  15.600   1.9962   0.01720   0.01283  -0.0747   0.0050   1.0000
  15.800   2.0072   0.01769   0.01333  -0.0734   0.0049   1.0000
  16.000   2.0178   0.01823   0.01387  -0.0721   0.0049   1.0000
