  
       XFOIL         Version 6.99
  
 Calculated polar for: NACA 4412                                       
  
 1 1 Reynolds number fixed          Mach number fixed         
  
 xtrf =   1.000 (top)        1.000 (bottom)  
 Mach =   0.000     Re =     7.000 e 6     Ncrit =   9.000
  
   alpha    CL        CD       CDp       CM     Top_Xtr  Bot_Xtr
  ------ -------- --------- --------- -------- -------- --------
  -4.800  -0.0687   0.00599   0.00137  -0.1028   0.6530   0.0291
  -4.600  -0.0456   0.00594   0.00131  -0.1029   0.6443   0.0312
  -4.400  -0.0227   0.00590   0.00125  -0.1029   0.6339   0.0330
  -4.200   0.0002   0.00589   0.00121  -0.1030   0.6232   0.0342
  -4.000   0.0232   0.00584   0.00115  -0.1031   0.6139   0.0373
  -3.800   0.0461   0.00582   0.00111  -0.1032   0.6028   0.0395
  -3.600   0.0691   0.00580   0.00107  -0.1033   0.5934   0.0420
  -3.400   0.0920   0.00576   0.00103  -0.1034   0.5838   0.0453
  -3.200   0.1149   0.00576   0.00100  -0.1034   0.5726   0.0482
  -3.000   0.1379   0.00572   0.00096  -0.1035   0.5646   0.0527
  -2.800   0.1609   0.00572   0.00093  -0.1036   0.5544   0.0551
  -2.600   0.1839   0.00568   0.00090  -0.1037   0.5463   0.0608
  -2.400   0.2068   0.00568   0.00088  -0.1038   0.5367   0.0649
  -2.200   0.2298   0.00565   0.00086  -0.1039   0.5287   0.0715
  -2.000   0.2528   0.00565   0.00084  -0.1040   0.5203   0.0756
  -1.800   0.2758   0.00562   0.00082  -0.1041   0.5124   0.0839
  -1.600   0.2988   0.00562   0.00081  -0.1042   0.5047   0.0906
  -1.400   0.3218   0.00560   0.00080  -0.1043   0.4978   0.0977
  -1.200   0.3447   0.00559   0.00079  -0.1044   0.4896   0.1078
  -1.000   0.3679   0.00557   0.00079  -0.1046   0.4850   0.1136
  -0.800   0.3908   0.00556   0.00079  -0.1047   0.4775   0.1258
  -0.600   0.4139   0.00555   0.00078  -0.1048   0.4719   0.1364
  -0.400   0.4370   0.00554   0.00079  -0.1049   0.4670   0.1462
  -0.200   0.4599   0.00554   0.00079  -0.1050   0.4597   0.1575
   0.000   0.4830   0.00551   0.00080  -0.1052   0.4557   0.1719
   0.200   0.5061   0.00550   0.00081  -0.1053   0.4516   0.1859
   0.400   0.5290   0.00550   0.00082  -0.1054   0.4455   0.2006
   0.600   0.5520   0.00550   0.00083  -0.1055   0.4408   0.2138
   0.800   0.5751   0.00548   0.00085  -0.1057   0.4374   0.2306
   1.000   0.5981   0.00548   0.00087  -0.1058   0.4326   0.2442
   1.200   0.6209   0.00549   0.00089  -0.1059   0.4259   0.2644
   1.400   0.6440   0.00546   0.00091  -0.1061   0.4236   0.2832
   1.600   0.6670   0.00545   0.00094  -0.1062   0.4192   0.3043
   1.800   0.6897   0.00547   0.00097  -0.1063   0.4132   0.3254
   2.000   0.7126   0.00545   0.00100  -0.1064   0.4087   0.3549
   2.200   0.7355   0.00542   0.00103  -0.1066   0.4044   0.3874
   2.400   0.7577   0.00538   0.00109  -0.1066   0.3963   0.4484
   2.600   0.7804   0.00531   0.00113  -0.1068   0.3907   0.5083
   2.800   0.8025   0.00530   0.00119  -0.1068   0.3816   0.5635
   3.000   0.8249   0.00527   0.00125  -0.1069   0.3737   0.6115
   3.200   0.8468   0.00530   0.00132  -0.1069   0.3616   0.6575
   3.400   0.8685   0.00532   0.00140  -0.1068   0.3497   0.7081
   3.800   0.9115   0.00535   0.00158  -0.1066   0.3248   0.8215
   4.000   0.9316   0.00533   0.00168  -0.1062   0.3107   0.9008
   4.200   0.9486   0.00534   0.00179  -0.1050   0.2975   0.9673
   4.400   0.9734   0.00548   0.00188  -0.1056   0.2815   0.9968
   4.600   0.9955   0.00566   0.00199  -0.1056   0.2656   1.0000
   4.800   1.0164   0.00586   0.00210  -0.1054   0.2490   1.0000
   5.000   1.0370   0.00607   0.00223  -0.1052   0.2318   1.0000
   5.200   1.0575   0.00630   0.00237  -0.1049   0.2139   1.0000
   5.400   1.0780   0.00652   0.00251  -0.1046   0.1962   1.0000
   5.600   1.0983   0.00675   0.00265  -0.1043   0.1791   1.0000
   5.800   1.1185   0.00699   0.00281  -0.1040   0.1624   1.0000
   6.000   1.1382   0.00727   0.00299  -0.1036   0.1439   1.0000
   6.200   1.1580   0.00753   0.00317  -0.1032   0.1272   1.0000
   6.400   1.1780   0.00778   0.00333  -0.1028   0.1124   1.0000
   6.600   1.1978   0.00804   0.00352  -0.1025   0.0988   1.0000
   6.800   1.2177   0.00828   0.00369  -0.1021   0.0872   1.0000
   7.200   1.2570   0.00878   0.00407  -0.1013   0.0669   1.0000
   7.400   1.2771   0.00899   0.00423  -0.1010   0.0609   1.0000
   7.600   1.2971   0.00920   0.00440  -0.1007   0.0548   1.0000
   8.000   1.3363   0.00965   0.00478  -0.0999   0.0439   1.0000
   8.200   1.3561   0.00986   0.00496  -0.0995   0.0398   1.0000
   8.400   1.3756   0.01008   0.00515  -0.0991   0.0365   1.0000
   8.600   1.3952   0.01028   0.00532  -0.0987   0.0336   1.0000
   8.800   1.4145   0.01050   0.00552  -0.0983   0.0311   1.0000
   9.000   1.4337   0.01072   0.00572  -0.0978   0.0284   1.0000
   9.200   1.4528   0.01093   0.00591  -0.0974   0.0266   1.0000
   9.400   1.4714   0.01117   0.00613  -0.0969   0.0241   1.0000
   9.600   1.4906   0.01136   0.00632  -0.0964   0.0233   1.0000
   9.800   1.5089   0.01160   0.00654  -0.0958   0.0219   1.0000
  10.000   1.5270   0.01184   0.00676  -0.0952   0.0201   1.0000
  10.200   1.5455   0.01205   0.00697  -0.0947   0.0194   1.0000
  10.400   1.5632   0.01230   0.00720  -0.0940   0.0184   1.0000
  10.600   1.5803   0.01257   0.00746  -0.0932   0.0169   1.0000
  10.800   1.5979   0.01279   0.00768  -0.0925   0.0163   1.0000
  11.000   1.6148   0.01303   0.00792  -0.0917   0.0158   1.0000
  11.200   1.6307   0.01330   0.00819  -0.0908   0.0150   1.0000
  11.400   1.6448   0.01359   0.00846  -0.0894   0.0141   1.0000
  11.600   1.6589   0.01386   0.00874  -0.0881   0.0135   1.0000
  11.800   1.6733   0.01412   0.00901  -0.0868   0.0133   1.0000
  12.000   1.6873   0.01441   0.00930  -0.0855   0.0129   1.0000
  12.200   1.7005   0.01474   0.00963  -0.0841   0.0124   1.0000
  12.400   1.7132   0.01511   0.01000  -0.0827   0.0118   1.0000
  12.600   1.7256   0.01549   0.01039  -0.0813   0.0110   1.0000
  12.800   1.7391   0.01583   0.01074  -0.0800   0.0108   1.0000
  13.000   1.7521   0.01620   0.01112  -0.0788   0.0107   1.0000
  13.200   1.7649   0.01659   0.01152  -0.0775   0.0104   1.0000
  13.400   1.7766   0.01704   0.01197  -0.0761   0.0101   1.0000
  13.600   1.7883   0.01751   0.01245  -0.0748   0.0098   1.0000
  13.800   1.7987   0.01805   0.01300  -0.0733   0.0094   1.0000
  14.000   1.8093   0.01860   0.01356  -0.0719   0.0089   1.0000
  14.200   1.8200   0.01916   0.01413  -0.0705   0.0087   1.0000
  14.400   1.8314   0.01969   0.01468  -0.0693   0.0086   1.0000
  14.600   1.8420   0.02027   0.01528  -0.0680   0.0085   1.0000
  14.800   1.8523   0.02089   0.01591  -0.0668   0.0084   1.0000
  15.000   1.8620   0.02157   0.01661  -0.0655   0.0082   1.0000
  15.200   1.8711   0.02230   0.01736  -0.0643   0.0080   1.0000
  15.400   1.8798   0.02308   0.01816  -0.0630   0.0078   1.0000
  15.600   1.8871   0.02396   0.01906  -0.0616   0.0076   1.0000
  15.800   1.8942   0.02489   0.02001  -0.0603   0.0073   1.0000
  16.000   1.9010   0.02588   0.02102  -0.0591   0.0070   1.0000
