  
       XFOIL         Version 6.99
  
 Calculated polar for: NACA 4412                                       
  
 1 1 Reynolds number fixed          Mach number fixed         
  
 xtrf =   1.000 (top)        1.000 (bottom)  
 Mach =   0.000     Re =     1.000 e 6     Ncrit =   9.000
  
   alpha    CL        CD       CDp       CM     Top_Xtr  Bot_Xtr
  ------ -------- --------- --------- -------- -------- --------
  -5.000  -0.0805   0.00862   0.00300  -0.1049   0.8480   0.0450
  -4.900  -0.0693   0.00857   0.00294  -0.1049   0.8445   0.0460
  -4.800  -0.0580   0.00852   0.00288  -0.1049   0.8407   0.0469
  -4.700  -0.0471   0.00840   0.00275  -0.1048   0.8367   0.0491
  -4.600  -0.0361   0.00833   0.00268  -0.1048   0.8330   0.0507
  -4.500  -0.0249   0.00829   0.00262  -0.1048   0.8295   0.0523
  -4.400  -0.0136   0.00824   0.00257  -0.1048   0.8257   0.0537
  -4.300  -0.0024   0.00819   0.00249  -0.1047   0.8217   0.0553
  -4.200   0.0086   0.00810   0.00241  -0.1047   0.8177   0.0578
  -4.100   0.0197   0.00805   0.00235  -0.1046   0.8140   0.0600
  -4.000   0.0310   0.00801   0.00230  -0.1046   0.8099   0.0619
  -3.900   0.0423   0.00798   0.00225  -0.1046   0.8055   0.0634
  -3.800   0.0532   0.00790   0.00217  -0.1046   0.8012   0.0670
  -3.700   0.0643   0.00785   0.00212  -0.1045   0.7972   0.0699
  -3.600   0.0756   0.00781   0.00208  -0.1045   0.7928   0.0724
  -3.500   0.0868   0.00778   0.00203  -0.1045   0.7883   0.0747
  -3.400   0.0978   0.00773   0.00197  -0.1044   0.7839   0.0788
  -3.300   0.1090   0.00768   0.00193  -0.1044   0.7798   0.0823
  -3.200   0.1203   0.00766   0.00189  -0.1044   0.7751   0.0850
  -3.100   0.1313   0.00761   0.00184  -0.1044   0.7703   0.0898
  -3.000   0.1423   0.00757   0.00180  -0.1043   0.7659   0.0942
  -2.900   0.1536   0.00754   0.00177  -0.1043   0.7611   0.0977
  -2.800   0.1648   0.00750   0.00173  -0.1043   0.7562   0.1030
  -2.700   0.1757   0.00747   0.00169  -0.1042   0.7514   0.1080
  -2.600   0.1870   0.00745   0.00167  -0.1042   0.7468   0.1121
  -2.500   0.1981   0.00740   0.00164  -0.1042   0.7417   0.1189
  -2.400   0.2092   0.00738   0.00161  -0.1042   0.7368   0.1246
  -2.300   0.2203   0.00736   0.00158  -0.1041   0.7320   0.1303
  -2.200   0.2315   0.00732   0.00156  -0.1041   0.7268   0.1371
  -2.000   0.2535   0.00728   0.00151  -0.1040   0.7166   0.1510
  -1.900   0.2648   0.00726   0.00149  -0.1040   0.7113   0.1575
  -1.800   0.2758   0.00724   0.00148  -0.1040   0.7059   0.1655
  -1.700   0.2868   0.00723   0.00146  -0.1039   0.7009   0.1732
  -1.600   0.2980   0.00720   0.00145  -0.1039   0.6957   0.1818
  -1.500   0.3091   0.00719   0.00143  -0.1039   0.6902   0.1901
  -1.400   0.3199   0.00717   0.00142  -0.1038   0.6849   0.1996
  -1.200   0.3422   0.00713   0.00141  -0.1038   0.6740   0.2189
  -1.100   0.3531   0.00713   0.00140  -0.1037   0.6687   0.2285
  -1.000   0.3643   0.00711   0.00140  -0.1037   0.6635   0.2390
  -0.900   0.3753   0.00709   0.00139  -0.1037   0.6580   0.2503
  -0.800   0.3862   0.00709   0.00139  -0.1036   0.6526   0.2616
  -0.700   0.3974   0.00707   0.00139  -0.1037   0.6474   0.2738
  -0.600   0.4084   0.00705   0.00139  -0.1036   0.6418   0.2872
  -0.500   0.4192   0.00705   0.00140  -0.1036   0.6364   0.3005
  -0.400   0.4304   0.00702   0.00140  -0.1036   0.6313   0.3152
  -0.300   0.4414   0.00700   0.00140  -0.1035   0.6259   0.3309
  -0.200   0.4521   0.00699   0.00141  -0.1035   0.6206   0.3482
  -0.100   0.4632   0.00694   0.00141  -0.1035   0.6156   0.3690
   0.000   0.4741   0.00690   0.00142  -0.1035   0.6103   0.3934
   0.100   0.4847   0.00683   0.00143  -0.1034   0.6051   0.4321
   0.200   0.4953   0.00671   0.00145  -0.1034   0.6004   0.4861
   0.300   0.5059   0.00659   0.00148  -0.1033   0.5953   0.5422
   0.400   0.5163   0.00650   0.00151  -0.1032   0.5903   0.5929
   0.500   0.5266   0.00642   0.00153  -0.1031   0.5857   0.6408
   0.600   0.5371   0.00632   0.00156  -0.1029   0.5810   0.6878
   0.700   0.5470   0.00623   0.00159  -0.1027   0.5762   0.7369
   0.800   0.5564   0.00615   0.00163  -0.1023   0.5716   0.7858
   0.900   0.5656   0.00604   0.00167  -0.1017   0.5675   0.8362
   1.000   0.5736   0.00595   0.00171  -0.1009   0.5632   0.8877
   1.100   0.5820   0.00590   0.00174  -0.1000   0.5588   0.9365
   1.200   0.5980   0.00593   0.00176  -0.1010   0.5543   0.9714
   1.300   0.6161   0.00595   0.00177  -0.1025   0.5499   0.9893
   1.400   0.6336   0.00599   0.00178  -0.1040   0.5453   0.9995
   1.500   0.6444   0.00604   0.00180  -0.1039   0.5411   1.0000
   1.600   0.6549   0.00609   0.00182  -0.1037   0.5374   1.0000
   1.700   0.6657   0.00612   0.00184  -0.1036   0.5337   1.0000
   1.800   0.6764   0.00616   0.00186  -0.1035   0.5298   1.0000
   1.900   0.6869   0.00622   0.00189  -0.1034   0.5260   1.0000
   2.000   0.6974   0.00627   0.00191  -0.1033   0.5224   1.0000
   2.100   0.7084   0.00630   0.00193  -0.1032   0.5192   1.0000
   2.200   0.7192   0.00634   0.00195  -0.1031   0.5157   1.0000
   2.300   0.7300   0.00639   0.00198  -0.1030   0.5122   1.0000
   2.400   0.7406   0.00644   0.00201  -0.1029   0.5088   1.0000
   2.500   0.7512   0.00650   0.00204  -0.1028   0.5056   1.0000
   2.600   0.7623   0.00653   0.00206  -0.1028   0.5027   1.0000
   2.700   0.7732   0.00657   0.00209  -0.1027   0.4995   1.0000
   2.800   0.7840   0.00661   0.00212  -0.1026   0.4963   1.0000
   2.900   0.7946   0.00667   0.00216  -0.1025   0.4931   1.0000
   3.000   0.8052   0.00674   0.00219  -0.1024   0.4899   1.0000
   3.100   0.8163   0.00676   0.00222  -0.1024   0.4873   1.0000
   3.200   0.8272   0.00680   0.00225  -0.1024   0.4844   1.0000
   3.300   0.8381   0.00685   0.00229  -0.1023   0.4814   1.0000
   3.400   0.8488   0.00690   0.00232  -0.1022   0.4783   1.0000
   3.500   0.8594   0.00697   0.00237  -0.1021   0.4752   1.0000
   3.600   0.8703   0.00701   0.00241  -0.1020   0.4726   1.0000
   3.700   0.8813   0.00705   0.00244  -0.1020   0.4698   1.0000
   3.800   0.8922   0.00709   0.00248  -0.1020   0.4668   1.0000
   3.900   0.9030   0.00714   0.00252  -0.1019   0.4638   1.0000
   4.000   0.9135   0.00721   0.00256  -0.1018   0.4606   1.0000
   4.100   0.9241   0.00728   0.00261  -0.1017   0.4575   1.0000
   4.200   0.9352   0.00731   0.00265  -0.1017   0.4548   1.0000
   4.300   0.9461   0.00735   0.00269  -0.1016   0.4516   1.0000
   4.400   0.9568   0.00740   0.00273  -0.1016   0.4482   1.0000
   4.500   0.9673   0.00747   0.00278  -0.1014   0.4446   1.0000
   4.600   0.9778   0.00755   0.00283  -0.1013   0.4410   1.0000
   4.700   0.9889   0.00758   0.00287  -0.1013   0.4376   1.0000
   4.800   0.9996   0.00763   0.00291  -0.1012   0.4336   1.0000
   4.900   1.0100   0.00770   0.00296  -0.1011   0.4293   1.0000
   5.000   1.0203   0.00779   0.00302  -0.1010   0.4251   1.0000
   5.100   1.0313   0.00782   0.00307  -0.1009   0.4211   1.0000
   5.200   1.0419   0.00788   0.00311  -0.1009   0.4165   1.0000
   5.300   1.0522   0.00797   0.00317  -0.1007   0.4119   1.0000
   5.400   1.0627   0.00803   0.00323  -0.1006   0.4077   1.0000
   5.500   1.0735   0.00808   0.00328  -0.1005   0.4031   1.0000
   5.600   1.0839   0.00816   0.00333  -0.1004   0.3979   1.0000
   5.700   1.0940   0.00825   0.00340  -0.1003   0.3930   1.0000
   5.800   1.1047   0.00830   0.00345  -0.1002   0.3880   1.0000
   5.900   1.1150   0.00839   0.00352  -0.1000   0.3822   1.0000
   6.000   1.1250   0.00848   0.00358  -0.0999   0.3767   1.0000
   6.100   1.1354   0.00855   0.00365  -0.0998   0.3708   1.0000
   6.200   1.1453   0.00867   0.00372  -0.0996   0.3641   1.0000
   6.300   1.1555   0.00875   0.00379  -0.0994   0.3582   1.0000
   6.400   1.1654   0.00886   0.00387  -0.0992   0.3508   1.0000
   6.500   1.1751   0.00897   0.00396  -0.0990   0.3437   1.0000
   6.600   1.1849   0.00909   0.00405  -0.0988   0.3360   1.0000
   6.700   1.1945   0.00922   0.00414  -0.0985   0.3284   1.0000
   6.800   1.2039   0.00935   0.00424  -0.0983   0.3195   1.0000
   6.900   1.2134   0.00949   0.00434  -0.0980   0.3113   1.0000
   7.000   1.2224   0.00966   0.00446  -0.0977   0.3019   1.0000
   7.100   1.2317   0.00981   0.00457  -0.0974   0.2921   1.0000
   7.200   1.2405   0.00998   0.00470  -0.0970   0.2824   1.0000
   7.300   1.2491   0.01018   0.00484  -0.0966   0.2715   1.0000
   7.400   1.2579   0.01035   0.00497  -0.0963   0.2608   1.0000
   7.500   1.2663   0.01056   0.00512  -0.0958   0.2496   1.0000
   7.600   1.2744   0.01079   0.00528  -0.0954   0.2377   1.0000
   7.700   1.2822   0.01103   0.00545  -0.0949   0.2254   1.0000
   7.800   1.2902   0.01126   0.00562  -0.0944   0.2132   1.0000
   7.900   1.2981   0.01149   0.00579  -0.0939   0.2013   1.0000
   8.000   1.3056   0.01175   0.00598  -0.0933   0.1893   1.0000
   8.100   1.3129   0.01202   0.00617  -0.0927   0.1771   1.0000
   8.200   1.3199   0.01229   0.00638  -0.0921   0.1652   1.0000
   8.300   1.3267   0.01259   0.00660  -0.0914   0.1532   1.0000
   8.400   1.3339   0.01284   0.00680  -0.0908   0.1423   1.0000
   8.500   1.3410   0.01310   0.00701  -0.0902   0.1325   1.0000
   8.600   1.3479   0.01338   0.00722  -0.0895   0.1233   1.0000
   8.700   1.3545   0.01365   0.00744  -0.0889   0.1142   1.0000
   8.800   1.3617   0.01389   0.00765  -0.0882   0.1065   1.0000
   8.900   1.3681   0.01417   0.00787  -0.0875   0.0987   1.0000
   9.000   1.3749   0.01442   0.00809  -0.0868   0.0920   1.0000
   9.100   1.3813   0.01468   0.00831  -0.0861   0.0857   1.0000
   9.200   1.3876   0.01492   0.00852  -0.0853   0.0802   1.0000
   9.300   1.3932   0.01516   0.00873  -0.0844   0.0752   1.0000
   9.400   1.3995   0.01538   0.00894  -0.0837   0.0711   1.0000
   9.500   1.4048   0.01565   0.00917  -0.0827   0.0668   1.0000
   9.600   1.4113   0.01586   0.00937  -0.0820   0.0636   1.0000
   9.700   1.4173   0.01609   0.00960  -0.0812   0.0603   1.0000
   9.800   1.4225   0.01637   0.00985  -0.0803   0.0568   1.0000
   9.900   1.4292   0.01658   0.01006  -0.0796   0.0544   1.0000
  10.000   1.4351   0.01682   0.01029  -0.0788   0.0519   1.0000
  10.100   1.4404   0.01711   0.01056  -0.0780   0.0493   1.0000
  10.200   1.4464   0.01735   0.01081  -0.0772   0.0472   1.0000
  10.300   1.4528   0.01758   0.01104  -0.0765   0.0455   1.0000
  10.400   1.4584   0.01784   0.01130  -0.0758   0.0436   1.0000
  10.500   1.4634   0.01815   0.01159  -0.0749   0.0418   1.0000
  10.600   1.4690   0.01842   0.01187  -0.0741   0.0402   1.0000
  10.700   1.4754   0.01865   0.01211  -0.0735   0.0391   1.0000
  10.800   1.4813   0.01891   0.01238  -0.0728   0.0379   1.0000
  10.900   1.4865   0.01921   0.01268  -0.0720   0.0367   1.0000
  11.000   1.4912   0.01954   0.01301  -0.0712   0.0354   1.0000
  11.100   1.4957   0.01990   0.01336  -0.0703   0.0341   1.0000
  11.200   1.5020   0.02014   0.01363  -0.0697   0.0335   1.0000
  11.300   1.5078   0.02042   0.01393  -0.0691   0.0327   1.0000
  11.400   1.5132   0.02072   0.01424  -0.0684   0.0318   1.0000
  11.500   1.5180   0.02107   0.01459  -0.0676   0.0310   1.0000
  11.600   1.5222   0.02145   0.01497  -0.0668   0.0301   1.0000
  11.700   1.5257   0.02190   0.01542  -0.0659   0.0291   1.0000
  11.800   1.5308   0.02224   0.01578  -0.0652   0.0285   1.0000
  11.900   1.5364   0.02254   0.01611  -0.0647   0.0280   1.0000
  12.000   1.5417   0.02288   0.01646  -0.0640   0.0275   1.0000
  12.100   1.5465   0.02324   0.01685  -0.0634   0.0269   1.0000
  12.200   1.5510   0.02364   0.01726  -0.0627   0.0264   1.0000
  12.300   1.5551   0.02407   0.01770  -0.0620   0.0258   1.0000
  12.400   1.5585   0.02455   0.01819  -0.0612   0.0252   1.0000
  12.500   1.5612   0.02510   0.01875  -0.0604   0.0246   1.0000
  12.600   1.5636   0.02568   0.01935  -0.0596   0.0241   1.0000
  12.700   1.5685   0.02607   0.01976  -0.0591   0.0238   1.0000
  12.800   1.5732   0.02648   0.02021  -0.0585   0.0235   1.0000
  12.900   1.5775   0.02693   0.02068  -0.0579   0.0231   1.0000
  13.000   1.5815   0.02740   0.02117  -0.0573   0.0228   1.0000
  13.100   1.5855   0.02789   0.02168  -0.0568   0.0224   1.0000
  13.200   1.5891   0.02842   0.02223  -0.0562   0.0221   1.0000
  13.300   1.5922   0.02899   0.02281  -0.0556   0.0217   1.0000
  13.400   1.5950   0.02959   0.02343  -0.0550   0.0213   1.0000
  13.500   1.5970   0.03027   0.02412  -0.0543   0.0209   1.0000
  13.600   1.5979   0.03104   0.02492  -0.0536   0.0205   1.0000
  13.700   1.5976   0.03194   0.02585  -0.0529   0.0201   1.0000
  13.800   1.6013   0.03250   0.02644  -0.0524   0.0199   1.0000
  13.900   1.6050   0.03308   0.02704  -0.0520   0.0197   1.0000
  14.000   1.6082   0.03370   0.02769  -0.0516   0.0195   1.0000
  14.100   1.6111   0.03435   0.02838  -0.0511   0.0193   1.0000
  14.200   1.6139   0.03503   0.02908  -0.0507   0.0190   1.0000
  14.300   1.6164   0.03573   0.02981  -0.0503   0.0188   1.0000
  14.400   1.6187   0.03646   0.03057  -0.0499   0.0186   1.0000
  14.500   1.6207   0.03722   0.03135  -0.0495   0.0184   1.0000
  14.600   1.6223   0.03803   0.03219  -0.0491   0.0182   1.0000
  14.700   1.6237   0.03888   0.03306  -0.0487   0.0180   1.0000
  14.800   1.6248   0.03977   0.03397  -0.0483   0.0177   1.0000
  14.900   1.6254   0.04072   0.03495  -0.0479   0.0175   1.0000
  15.000   1.6253   0.04176   0.03601  -0.0476   0.0173   1.0000
  15.100   1.6243   0.04291   0.03720  -0.0472   0.0171   1.0000
  15.200   1.6224   0.04418   0.03850  -0.0469   0.0169   1.0000
  15.300   1.6193   0.04559   0.03994  -0.0465   0.0167   1.0000
  15.400   1.6194   0.04668   0.04107  -0.0463   0.0165   1.0000
  15.500   1.6209   0.04761   0.04204  -0.0461   0.0164   1.0000
  15.600   1.6223   0.04858   0.04304  -0.0459   0.0163   1.0000
  15.700   1.6232   0.04960   0.04410  -0.0458   0.0162   1.0000
  15.800   1.6241   0.05064   0.04518  -0.0457   0.0161   1.0000
  15.900   1.6244   0.05176   0.04634  -0.0455   0.0160   1.0000
  16.000   1.6248   0.05288   0.04748  -0.0454   0.0158   1.0000
