  
       XFOIL         Version 6.99
  
 Calculated polar for: NACA 4412                                       
  
 1 1 Reynolds number fixed          Mach number fixed         
  
 xtrf =   1.000 (top)        1.000 (bottom)  
 Mach =   0.000     Re =    38.000 e 6     Ncrit =   9.000
  
   alpha    CL        CD       CDp       CM     Top_Xtr  Bot_Xtr
  ------ -------- --------- --------- -------- -------- --------
  -5.000  -0.0968   0.00521   0.00111  -0.1022   0.4669   0.0195
  -4.900  -0.0852   0.00520   0.00109  -0.1023   0.4629   0.0200
  -4.800  -0.0735   0.00518   0.00107  -0.1024   0.4581   0.0205
  -4.700  -0.0618   0.00516   0.00105  -0.1025   0.4571   0.0207
  -4.600  -0.0501   0.00514   0.00103  -0.1025   0.4560   0.0208
  -4.500  -0.0384   0.00513   0.00102  -0.1026   0.4538   0.0209
  -4.400  -0.0267   0.00512   0.00100  -0.1027   0.4508   0.0216
  -4.300  -0.0151   0.00511   0.00099  -0.1028   0.4477   0.0225
  -4.200  -0.0034   0.00509   0.00097  -0.1028   0.4429   0.0233
  -4.100   0.0083   0.00506   0.00095  -0.1029   0.4415   0.0241
  -4.000   0.0200   0.00504   0.00093  -0.1030   0.4407   0.0246
  -3.900   0.0318   0.00503   0.00092  -0.1031   0.4395   0.0247
  -3.800   0.0435   0.00502   0.00090  -0.1032   0.4375   0.0255
  -3.700   0.0551   0.00501   0.00089  -0.1032   0.4347   0.0266
  -3.600   0.0668   0.00500   0.00088  -0.1033   0.4316   0.0276
  -3.500   0.0784   0.00498   0.00086  -0.1034   0.4281   0.0285
  -3.400   0.0902   0.00497   0.00085  -0.1035   0.4257   0.0289
  -3.300   0.1020   0.00495   0.00084  -0.1036   0.4252   0.0291
  -3.200   0.1137   0.00494   0.00082  -0.1037   0.4245   0.0297
  -3.100   0.1255   0.00492   0.00081  -0.1037   0.4233   0.0317
  -3.000   0.1371   0.00491   0.00080  -0.1038   0.4211   0.0331
  -2.900   0.1488   0.00490   0.00079  -0.1039   0.4191   0.0339
  -2.800   0.1605   0.00489   0.00078  -0.1040   0.4167   0.0341
  -2.700   0.1722   0.00489   0.00077  -0.1041   0.4137   0.0353
  -2.600   0.1839   0.00488   0.00077  -0.1041   0.4110   0.0369
  -2.500   0.1956   0.00485   0.00075  -0.1042   0.4095   0.0386
  -2.400   0.2074   0.00484   0.00074  -0.1043   0.4090   0.0396
  -2.300   0.2192   0.00483   0.00073  -0.1044   0.4085   0.0399
  -2.200   0.2309   0.00482   0.00072  -0.1045   0.4074   0.0419
  -2.100   0.2425   0.00481   0.00072  -0.1046   0.4047   0.0445
  -2.000   0.2542   0.00481   0.00071  -0.1047   0.4019   0.0457
  -1.900   0.2658   0.00481   0.00071  -0.1047   0.3977   0.0464
  -1.800   0.2775   0.00481   0.00071  -0.1048   0.3944   0.0475
  -1.700   0.2893   0.00480   0.00070  -0.1049   0.3932   0.0496
  -1.600   0.3010   0.00478   0.00069  -0.1050   0.3924   0.0527
  -1.500   0.3126   0.00477   0.00068  -0.1051   0.3901   0.0542
  -1.400   0.3242   0.00478   0.00069  -0.1051   0.3868   0.0550
  -1.300   0.3358   0.00479   0.00069  -0.1052   0.3830   0.0579
  -1.200   0.3475   0.00478   0.00069  -0.1053   0.3782   0.0605
  -1.100   0.3592   0.00477   0.00068  -0.1054   0.3774   0.0630
  -1.000   0.3709   0.00477   0.00068  -0.1055   0.3754   0.0631
  -0.900   0.3825   0.00478   0.00068  -0.1055   0.3722   0.0672
  -0.800   0.3940   0.00478   0.00068  -0.1056   0.3676   0.0704
  -0.700   0.4056   0.00478   0.00069  -0.1057   0.3627   0.0729
  -0.600   0.4173   0.00478   0.00068  -0.1058   0.3616   0.0735
  -0.500   0.4290   0.00478   0.00068  -0.1058   0.3593   0.0780
  -0.400   0.4404   0.00479   0.00069  -0.1059   0.3552   0.0819
  -0.300   0.4519   0.00480   0.00070  -0.1060   0.3496   0.0844
  -0.200   0.4636   0.00480   0.00070  -0.1060   0.3468   0.0852
  -0.100   0.4753   0.00481   0.00070  -0.1061   0.3449   0.0881
   0.000   0.4867   0.00482   0.00071  -0.1062   0.3401   0.0945
   0.100   0.4981   0.00484   0.00072  -0.1062   0.3329   0.0973
   0.200   0.5098   0.00485   0.00072  -0.1063   0.3309   0.0981
   0.300   0.5214   0.00485   0.00073  -0.1064   0.3287   0.1017
   0.400   0.5327   0.00488   0.00075  -0.1064   0.3221   0.1081
   0.500   0.5442   0.00489   0.00076  -0.1065   0.3164   0.1114
   0.600   0.5558   0.00490   0.00076  -0.1065   0.3144   0.1122
   0.700   0.5672   0.00493   0.00078  -0.1066   0.3100   0.1162
   0.800   0.5786   0.00495   0.00079  -0.1066   0.3030   0.1222
   0.900   0.5901   0.00495   0.00080  -0.1067   0.2999   0.1259
   1.000   0.6015   0.00498   0.00081  -0.1067   0.2956   0.1282
   1.100   0.6128   0.00502   0.00084  -0.1068   0.2879   0.1343
   1.200   0.6243   0.00502   0.00084  -0.1068   0.2842   0.1406
   1.300   0.6356   0.00506   0.00086  -0.1069   0.2788   0.1420
   1.400   0.6469   0.00509   0.00088  -0.1069   0.2707   0.1461
   1.600   0.6695   0.00516   0.00093  -0.1069   0.2597   0.1559
   1.700   0.6809   0.00518   0.00094  -0.1070   0.2544   0.1599
   1.800   0.6921   0.00522   0.00097  -0.1070   0.2484   0.1673
   1.900   0.7033   0.00525   0.00099  -0.1070   0.2407   0.1718
   2.000   0.7147   0.00528   0.00101  -0.1071   0.2373   0.1737
   2.100   0.7257   0.00534   0.00105  -0.1070   0.2259   0.1792
   2.300   0.7481   0.00541   0.00109  -0.1071   0.2166   0.1901
   2.400   0.7594   0.00545   0.00112  -0.1071   0.2097   0.1932
   2.500   0.7705   0.00550   0.00115  -0.1071   0.2036   0.2011
   2.600   0.7817   0.00553   0.00117  -0.1071   0.1962   0.2064
   2.700   0.7928   0.00558   0.00121  -0.1071   0.1908   0.2121
   2.800   0.8039   0.00563   0.00124  -0.1071   0.1817   0.2188
   2.900   0.8153   0.00565   0.00126  -0.1072   0.1800   0.2229
   3.000   0.8261   0.00572   0.00131  -0.1071   0.1711   0.2281
   3.200   0.8481   0.00582   0.00138  -0.1071   0.1575   0.2406
   3.300   0.8594   0.00585   0.00140  -0.1071   0.1526   0.2463
   3.400   0.8705   0.00589   0.00143  -0.1072   0.1487   0.2545
   3.500   0.8815   0.00596   0.00148  -0.1071   0.1399   0.2568
   3.600   0.8927   0.00599   0.00150  -0.1071   0.1369   0.2668
   3.700   0.9036   0.00604   0.00155  -0.1071   0.1320   0.2734
   3.800   0.9148   0.00609   0.00158  -0.1071   0.1255   0.2762
   3.900   0.9258   0.00613   0.00162  -0.1071   0.1215   0.2858
   4.000   0.9367   0.00619   0.00167  -0.1071   0.1153   0.2925
   4.200   0.9586   0.00629   0.00174  -0.1071   0.1055   0.3079
   4.300   0.9697   0.00634   0.00178  -0.1071   0.0993   0.3138
   4.400   0.9808   0.00637   0.00181  -0.1071   0.0973   0.3236
   4.500   0.9915   0.00645   0.00187  -0.1070   0.0914   0.3292
   4.600   1.0027   0.00647   0.00190  -0.1070   0.0873   0.3403
   4.700   1.0133   0.00655   0.00196  -0.1070   0.0822   0.3477
   4.800   1.0243   0.00659   0.00200  -0.1070   0.0783   0.3574
   4.900   1.0355   0.00662   0.00203  -0.1070   0.0759   0.3655
   5.000   1.0464   0.00667   0.00208  -0.1070   0.0728   0.3749
   5.100   1.0572   0.00672   0.00213  -0.1069   0.0688   0.3908
   5.200   1.0682   0.00677   0.00217  -0.1069   0.0651   0.3955
   5.500   1.1009   0.00689   0.00231  -0.1069   0.0559   0.4409
   5.600   1.1119   0.00694   0.00236  -0.1069   0.0547   0.4473
   5.700   1.1225   0.00699   0.00241  -0.1068   0.0517   0.4606
   5.900   1.1444   0.00706   0.00250  -0.1068   0.0470   0.4904
   6.000   1.1549   0.00714   0.00257  -0.1068   0.0437   0.5034
   6.100   1.1658   0.00718   0.00262  -0.1067   0.0411   0.5137
   6.200   1.1768   0.00721   0.00266  -0.1067   0.0402   0.5257
   6.300   1.1877   0.00725   0.00271  -0.1067   0.0392   0.5367
   6.400   1.1983   0.00731   0.00278  -0.1067   0.0370   0.5487
   6.500   1.2091   0.00735   0.00282  -0.1066   0.0346   0.5624
   6.600   1.2200   0.00740   0.00287  -0.1066   0.0336   0.5725
   6.700   1.2306   0.00745   0.00293  -0.1066   0.0323   0.5839
   6.800   1.2413   0.00750   0.00299  -0.1065   0.0304   0.5975
   6.900   1.2521   0.00754   0.00304  -0.1065   0.0288   0.6120
   7.000   1.2629   0.00758   0.00309  -0.1065   0.0285   0.6248
   7.100   1.2737   0.00762   0.00314  -0.1065   0.0279   0.6363
   7.200   1.2843   0.00768   0.00320  -0.1064   0.0266   0.6483
   7.300   1.2949   0.00772   0.00327  -0.1064   0.0252   0.6638
   7.400   1.3056   0.00776   0.00332  -0.1063   0.0240   0.6774
   7.500   1.3163   0.00781   0.00338  -0.1063   0.0236   0.6903
   7.600   1.3269   0.00786   0.00344  -0.1063   0.0228   0.7053
   7.700   1.3373   0.00792   0.00351  -0.1062   0.0214   0.7199
   7.800   1.3479   0.00796   0.00357  -0.1061   0.0203   0.7366
   7.900   1.3586   0.00799   0.00363  -0.1061   0.0200   0.7538
   8.000   1.3693   0.00803   0.00368  -0.1061   0.0198   0.7700
   8.100   1.3798   0.00807   0.00375  -0.1060   0.0193   0.7879
   8.200   1.3902   0.00812   0.00382  -0.1059   0.0186   0.8066
   8.300   1.4006   0.00817   0.00389  -0.1058   0.0178   0.8261
   8.400   1.4110   0.00820   0.00395  -0.1058   0.0169   0.8490
   8.500   1.4215   0.00823   0.00401  -0.1057   0.0165   0.8705
   8.600   1.4319   0.00825   0.00407  -0.1056   0.0164   0.8964
   8.700   1.4420   0.00827   0.00415  -0.1055   0.0159   0.9269
   8.800   1.4510   0.00830   0.00423  -0.1051   0.0152   0.9621
   8.900   1.4597   0.00832   0.00430  -0.1046   0.0147   0.9944
   9.000   1.4708   0.00839   0.00437  -0.1047   0.0139   1.0000
   9.100   1.4812   0.00846   0.00443  -0.1046   0.0136   1.0000
   9.200   1.4916   0.00853   0.00448  -0.1045   0.0135   1.0000
   9.300   1.5020   0.00859   0.00455  -0.1044   0.0134   1.0000
   9.400   1.5122   0.00867   0.00461  -0.1043   0.0131   1.0000
   9.500   1.5224   0.00875   0.00469  -0.1042   0.0128   1.0000
   9.600   1.5324   0.00883   0.00476  -0.1041   0.0124   1.0000
   9.700   1.5425   0.00892   0.00484  -0.1039   0.0119   1.0000
   9.800   1.5526   0.00900   0.00491  -0.1038   0.0115   1.0000
   9.900   1.5627   0.00907   0.00498  -0.1037   0.0111   1.0000
  10.000   1.5728   0.00915   0.00505  -0.1035   0.0109   1.0000
  10.100   1.5830   0.00922   0.00511  -0.1034   0.0109   1.0000
  10.200   1.5930   0.00930   0.00518  -0.1033   0.0107   1.0000
  10.300   1.6030   0.00938   0.00526  -0.1031   0.0106   1.0000
  10.400   1.6127   0.00948   0.00535  -0.1029   0.0102   1.0000
  10.500   1.6224   0.00957   0.00544  -0.1028   0.0098   1.0000
  10.600   1.6321   0.00966   0.00552  -0.1026   0.0095   1.0000
  10.700   1.6418   0.00975   0.00560  -0.1024   0.0092   1.0000
  10.800   1.6516   0.00983   0.00568  -0.1022   0.0088   1.0000
  10.900   1.6614   0.00992   0.00576  -0.1020   0.0087   1.0000
  11.000   1.6712   0.01000   0.00583  -0.1019   0.0086   1.0000
  11.100   1.6809   0.01008   0.00591  -0.1017   0.0086   1.0000
  11.200   1.6906   0.01016   0.00599  -0.1015   0.0085   1.0000
  11.300   1.7002   0.01025   0.00607  -0.1013   0.0085   1.0000
  11.400   1.7097   0.01034   0.00616  -0.1011   0.0084   1.0000
  11.500   1.7191   0.01044   0.00625  -0.1008   0.0082   1.0000
  11.600   1.7283   0.01054   0.00635  -0.1006   0.0080   1.0000
  11.700   1.7375   0.01065   0.00645  -0.1003   0.0078   1.0000
  11.800   1.7466   0.01075   0.00655  -0.1000   0.0076   1.0000
  11.900   1.7558   0.01085   0.00664  -0.0997   0.0074   1.0000
  12.000   1.7649   0.01095   0.00674  -0.0995   0.0072   1.0000
  12.100   1.7740   0.01105   0.00683  -0.0992   0.0069   1.0000
  12.200   1.7830   0.01115   0.00693  -0.0989   0.0068   1.0000
  12.300   1.7921   0.01125   0.00702  -0.0986   0.0067   1.0000
  12.400   1.8011   0.01134   0.00711  -0.0983   0.0067   1.0000
  12.500   1.8101   0.01144   0.00721  -0.0980   0.0067   1.0000
  12.600   1.8190   0.01154   0.00731  -0.0977   0.0066   1.0000
  12.700   1.8277   0.01164   0.00740  -0.0974   0.0066   1.0000
  12.800   1.8364   0.01175   0.00751  -0.0970   0.0066   1.0000
  12.900   1.8448   0.01186   0.00761  -0.0966   0.0065   1.0000
  13.000   1.8529   0.01197   0.00772  -0.0962   0.0064   1.0000
  13.100   1.8604   0.01211   0.00786  -0.0956   0.0061   1.0000
  13.200   1.8683   0.01222   0.00797  -0.0951   0.0061   1.0000
  13.300   1.8756   0.01236   0.00810  -0.0945   0.0059   1.0000
  13.400   1.8825   0.01247   0.00821  -0.0938   0.0058   1.0000
  13.500   1.8886   0.01261   0.00835  -0.0929   0.0056   1.0000
  13.600   1.8949   0.01273   0.00847  -0.0921   0.0055   1.0000
  13.700   1.9012   0.01286   0.00860  -0.0913   0.0054   1.0000
  13.800   1.9075   0.01299   0.00873  -0.0906   0.0052   1.0000
  13.900   1.9142   0.01312   0.00886  -0.0899   0.0051   1.0000
  14.000   1.9208   0.01326   0.00900  -0.0892   0.0051   1.0000
  14.100   1.9272   0.01340   0.00914  -0.0884   0.0050   1.0000
  14.200   1.9337   0.01354   0.00928  -0.0877   0.0050   1.0000
  14.300   1.9404   0.01368   0.00942  -0.0871   0.0050   1.0000
  14.400   1.9472   0.01382   0.00956  -0.0864   0.0050   1.0000
  14.500   1.9535   0.01397   0.00972  -0.0857   0.0050   1.0000
  14.600   1.9597   0.01413   0.00988  -0.0850   0.0050   1.0000
  14.700   1.9661   0.01429   0.01003  -0.0843   0.0050   1.0000
  14.800   1.9727   0.01445   0.01019  -0.0837   0.0049   1.0000
  14.900   1.9789   0.01462   0.01037  -0.0830   0.0049   1.0000
  15.000   1.9848   0.01480   0.01055  -0.0823   0.0049   1.0000
  15.100   1.9909   0.01498   0.01073  -0.0816   0.0049   1.0000
  15.200   1.9970   0.01517   0.01092  -0.0809   0.0048   1.0000
  15.300   2.0031   0.01536   0.01111  -0.0803   0.0048   1.0000
  15.400   2.0084   0.01558   0.01133  -0.0795   0.0047   1.0000
  15.500   2.0139   0.01579   0.01155  -0.0788   0.0047   1.0000
  15.600   2.0195   0.01602   0.01178  -0.0781   0.0046   1.0000
  15.700   2.0250   0.01626   0.01202  -0.0773   0.0045   1.0000
  15.800   2.0298   0.01651   0.01227  -0.0765   0.0045   1.0000
  15.900   2.0343   0.01678   0.01255  -0.0757   0.0044   1.0000
  16.000   2.0397   0.01703   0.01280  -0.0750   0.0043   1.0000
  16.100   2.0451   0.01728   0.01305  -0.0743   0.0042   1.0000
  16.200   2.0496   0.01757   0.01334  -0.0736   0.0042   1.0000
  16.300   2.0545   0.01785   0.01363  -0.0728   0.0041   1.0000
  16.400   2.0599   0.01812   0.01390  -0.0722   0.0040   1.0000
  16.500   2.0649   0.01839   0.01418  -0.0715   0.0039   1.0000
  16.600   2.0690   0.01871   0.01450  -0.0707   0.0038   1.0000
  16.700   2.0738   0.01901   0.01480  -0.0700   0.0038   1.0000
  16.800   2.0788   0.01931   0.01510  -0.0694   0.0037   1.0000
  16.900   2.0834   0.01963   0.01543  -0.0687   0.0036   1.0000
  17.000   2.0876   0.01998   0.01578  -0.0680   0.0036   1.0000
  17.100   2.0925   0.02029   0.01611  -0.0674   0.0036   1.0000
  17.200   2.0976   0.02060   0.01642  -0.0668   0.0036   1.0000
  17.300   2.1017   0.02097   0.01679  -0.0661   0.0036   1.0000
  17.400   2.1057   0.02134   0.01717  -0.0655   0.0036   1.0000
  17.500   2.1102   0.02168   0.01752  -0.0648   0.0036   1.0000
  17.600   2.1146   0.02204   0.01788  -0.0642   0.0036   1.0000
  17.700   2.1180   0.02247   0.01832  -0.0635   0.0036   1.0000
  17.800   2.1221   0.02286   0.01872  -0.0629   0.0036   1.0000
  17.900   2.1266   0.02324   0.01910  -0.0624   0.0036   1.0000
  18.000   2.1297   0.02371   0.01958  -0.0617   0.0035   1.0000
  18.100   2.1333   0.02416   0.02003  -0.0611   0.0035   1.0000
  18.200   2.1375   0.02456   0.02044  -0.0606   0.0035   1.0000
  18.300   2.1406   0.02505   0.02094  -0.0599   0.0035   1.0000
  18.400   2.1435   0.02556   0.02145  -0.0593   0.0035   1.0000
  18.500   2.1469   0.02602   0.02192  -0.0587   0.0035   1.0000
  18.600   2.1498   0.02653   0.02244  -0.0581   0.0035   1.0000
  18.700   2.1518   0.02713   0.02305  -0.0575   0.0034   1.0000
  18.800   2.1553   0.02762   0.02354  -0.0570   0.0034   1.0000
  18.900   2.1574   0.02823   0.02416  -0.0564   0.0034   1.0000
  19.000   2.1595   0.02885   0.02480  -0.0558   0.0034   1.0000
  19.100   2.1629   0.02937   0.02533  -0.0554   0.0034   1.0000
  19.200   2.1643   0.03007   0.02604  -0.0548   0.0033   1.0000
  19.300   2.1660   0.03076   0.02673  -0.0543   0.0033   1.0000
  19.400   2.1687   0.03136   0.02734  -0.0538   0.0032   1.0000
  19.500   2.1691   0.03216   0.02816  -0.0532   0.0032   1.0000
  19.600   2.1709   0.03284   0.02885  -0.0527   0.0032   1.0000
  19.700   2.1731   0.03350   0.02951  -0.0523   0.0032   1.0000
  19.800   2.1727   0.03442   0.03045  -0.0518   0.0031   1.0000
  19.900   2.1746   0.03513   0.03116  -0.0513   0.0031   1.0000
  20.000   2.1752   0.03598   0.03203  -0.0509   0.0030   1.0000
  20.100   2.1758   0.03684   0.03290  -0.0505   0.0030   1.0000
  20.200   2.1775   0.03759   0.03366  -0.0501   0.0030   1.0000
  20.300   2.1765   0.03864   0.03473  -0.0497   0.0029   1.0000
  20.400   2.1783   0.03940   0.03549  -0.0494   0.0029   1.0000
  20.500   2.1790   0.04028   0.03639  -0.0491   0.0029   1.0000
  20.600   2.1790   0.04125   0.03737  -0.0488   0.0029   1.0000
  20.700   2.1799   0.04209   0.03822  -0.0484   0.0028   1.0000
  20.800   2.1783   0.04324   0.03939  -0.0481   0.0027   1.0000
  20.900   2.1790   0.04413   0.04029  -0.0478   0.0027   1.0000
  21.000   2.1791   0.04510   0.04128  -0.0476   0.0027   1.0000
  21.100   2.1777   0.04627   0.04246  -0.0473   0.0026   1.0000
  21.200   2.1784   0.04718   0.04339  -0.0471   0.0026   1.0000
  21.300   2.1765   0.04843   0.04465  -0.0469   0.0026   1.0000
  21.400   2.1765   0.04945   0.04569  -0.0467   0.0025   1.0000
  21.500   2.1766   0.05045   0.04670  -0.0465   0.0025   1.0000
  21.600   2.1739   0.05182   0.04808  -0.0464   0.0025   1.0000
  21.700   2.1740   0.05283   0.04911  -0.0462   0.0025   1.0000
  21.800   2.1714   0.05419   0.05049  -0.0461   0.0024   1.0000
  21.900   2.1701   0.05535   0.05166  -0.0460   0.0024   1.0000
  22.000   2.1699   0.05640   0.05273  -0.0458   0.0024   1.0000
  22.100   2.1664   0.05789   0.05424  -0.0458   0.0024   1.0000
  22.200   2.1660   0.05897   0.05534  -0.0457   0.0024   1.0000
  22.300   2.1626   0.06046   0.05685  -0.0457   0.0024   1.0000
  22.400   2.1611   0.06172   0.05811  -0.0457   0.0024   1.0000
  22.500   2.1606   0.06283   0.05924  -0.0456   0.0024   1.0000
  22.600   2.1559   0.06452   0.06096  -0.0457   0.0024   1.0000
  22.700   2.1547   0.06573   0.06218  -0.0457   0.0024   1.0000
  22.800   2.1514   0.06725   0.06372  -0.0458   0.0024   1.0000
  22.900   2.1483   0.06872   0.06521  -0.0458   0.0024   1.0000
  23.000   2.1471   0.06991   0.06641  -0.0458   0.0024   1.0000
  23.100   2.1410   0.07177   0.06830  -0.0460   0.0024   1.0000
  23.200   2.1391   0.07307   0.06962  -0.0461   0.0024   1.0000
  23.300   2.1368   0.07444   0.07101  -0.0462   0.0024   1.0000
  23.400   2.1308   0.07634   0.07293  -0.0464   0.0024   1.0000
  23.500   2.1291   0.07765   0.07425  -0.0465   0.0024   1.0000
  23.600   2.1231   0.07956   0.07619  -0.0468   0.0024   1.0000
  23.700   2.1197   0.08110   0.07775  -0.0470   0.0024   1.0000
  23.800   2.1180   0.08241   0.07907  -0.0471   0.0024   1.0000
  23.900   2.1105   0.08455   0.08125  -0.0475   0.0024   1.0000
  24.000   2.1078   0.08601   0.08272  -0.0477   0.0024   1.0000
  24.100   2.1057   0.08735   0.08408  -0.0479   0.0024   1.0000
  24.200   2.0967   0.08966   0.08641  -0.0484   0.0024   1.0000
  24.300   2.0941   0.09109   0.08786  -0.0486   0.0024   1.0000
  24.400   2.0906   0.09266   0.08945  -0.0489   0.0024   1.0000
  24.500   2.0824   0.09492   0.09174  -0.0494   0.0024   1.0000
  24.600   2.0799   0.09637   0.09320  -0.0497   0.0024   1.0000
  24.700   2.0746   0.09823   0.09509  -0.0502   0.0024   1.0000
  24.800   2.0675   0.10035   0.09723  -0.0507   0.0024   1.0000
  24.900   2.0651   0.10179   0.09870  -0.0511   0.0024   1.0000
  25.000   2.0608   0.10352   0.10044  -0.0515   0.0024   1.0000
  25.100   2.0522   0.10589   0.10284  -0.0523   0.0024   1.0000
  25.200   2.0496   0.10735   0.10432  -0.0526   0.0024   1.0000
  25.300   2.0469   0.10879   0.10578  -0.0530   0.0024   1.0000
  25.400   2.0358   0.11151   0.10853  -0.0539   0.0024   1.0000
  25.500   2.0328   0.11304   0.11008  -0.0544   0.0024   1.0000
  25.600   2.0303   0.11451   0.11156  -0.0548   0.0024   1.0000
  25.700   2.0195   0.11726   0.11435  -0.0559   0.0024   1.0000
  25.800   2.0164   0.11883   0.11594  -0.0564   0.0024   1.0000
  25.900   2.0140   0.12031   0.11743  -0.0569   0.0024   1.0000
  26.000   2.0033   0.12308   0.12024  -0.0581   0.0024   1.0000
  26.100   2.0003   0.12467   0.12184  -0.0587   0.0024   1.0000
  26.200   1.9978   0.12617   0.12335  -0.0593   0.0023   1.0000
  26.300   1.9876   0.12890   0.12612  -0.0605   0.0023   1.0000
  26.400   1.9841   0.13058   0.12781  -0.0612   0.0023   1.0000
  26.500   1.9813   0.13212   0.12937  -0.0619   0.0023   1.0000
  26.600   1.9782   0.13368   0.13095  -0.0626   0.0023   1.0000
  26.700   1.9669   0.13658   0.13389  -0.0640   0.0023   1.0000
  26.800   1.9637   0.13822   0.13554  -0.0648   0.0023   1.0000
  26.900   1.9616   0.13968   0.13701  -0.0655   0.0023   1.0000
  27.000   1.9507   0.14259   0.13997  -0.0670   0.0023   1.0000
  27.100   1.9481   0.14417   0.14156  -0.0679   0.0023   1.0000
  27.200   1.9453   0.14577   0.14317  -0.0687   0.0023   1.0000
  27.300   1.9344   0.14874   0.14618  -0.0704   0.0023   1.0000
  27.400   1.9313   0.15042   0.14788  -0.0714   0.0023   1.0000
  27.500   1.9286   0.15201   0.14948  -0.0723   0.0023   1.0000
  27.600   1.9255   0.15369   0.15118  -0.0733   0.0022   1.0000
  27.700   1.9144   0.15676   0.15428  -0.0752   0.0023   1.0000
  27.800   1.9115   0.15842   0.15596  -0.0762   0.0022   1.0000
  27.900   1.9088   0.16004   0.15760  -0.0772   0.0022   1.0000
  28.000   1.8972   0.16326   0.16085  -0.0793   0.0022   1.0000
  28.100   1.8944   0.16489   0.16250  -0.0804   0.0022   1.0000
  28.200   1.8920   0.16645   0.16407  -0.0815   0.0022   1.0000
  28.400   1.8777   0.17128   0.16896  -0.0848   0.0022   1.0000
  28.500   1.8738   0.17313   0.17083  -0.0861   0.0021   1.0000
  28.600   1.8724   0.17455   0.17226  -0.0871   0.0021   1.0000
  28.700   1.8591   0.17817   0.17593  -0.0897   0.0021   1.0000
  28.800   1.8574   0.17969   0.17745  -0.0908   0.0021   1.0000
  28.900   1.8529   0.18169   0.17947  -0.0923   0.0021   1.0000
  29.100   1.8376   0.18699   0.18483  -0.0963   0.0021   1.0000
  29.200   1.8367   0.18836   0.18621  -0.0974   0.0021   1.0000
  29.300   1.8229   0.19224   0.19014  -0.1004   0.0021   1.0000
  29.400   1.8205   0.19392   0.19184  -0.1018   0.0020   1.0000
  29.500   1.8191   0.19541   0.19333  -0.1031   0.0020   1.0000
  29.600   1.8163   0.19717   0.19511  -0.1045   0.0020   1.0000
  29.700   1.8008   0.20149   0.19948  -0.1080   0.0020   1.0000
  29.800   1.7987   0.20312   0.20112  -0.1094   0.0020   1.0000
  29.900   1.7965   0.20481   0.20283  -0.1108   0.0020   1.0000
  30.000   1.7831   0.20879   0.20685  -0.1141   0.0020   1.0000
