  
       XFOIL         Version 6.99
  
 Calculated polar for: NACA 4412                                       
  
 1 1 Reynolds number fixed          Mach number fixed         
  
 xtrf =   1.000 (top)        1.000 (bottom)  
 Mach =   0.000     Re =    39.000 e 6     Ncrit =   9.000
  
   alpha    CL        CD       CDp       CM     Top_Xtr  Bot_Xtr
  ------ -------- --------- --------- -------- -------- --------
  -4.800  -0.0735   0.00516   0.00106  -0.1024   0.4572   0.0204
  -4.600  -0.0501   0.00513   0.00103  -0.1025   0.4541   0.0208
  -4.400  -0.0268   0.00511   0.00100  -0.1027   0.4477   0.0214
  -4.200  -0.0034   0.00508   0.00096  -0.1028   0.4414   0.0231
  -4.000   0.0200   0.00503   0.00093  -0.1030   0.4397   0.0246
  -3.800   0.0434   0.00501   0.00090  -0.1032   0.4353   0.0252
  -3.600   0.0668   0.00499   0.00088  -0.1033   0.4287   0.0274
  -3.400   0.0902   0.00495   0.00084  -0.1035   0.4252   0.0288
  -3.200   0.1138   0.00493   0.00082  -0.1037   0.4235   0.0294
  -3.000   0.1371   0.00490   0.00080  -0.1038   0.4190   0.0329
  -2.800   0.1605   0.00488   0.00078  -0.1040   0.4141   0.0341
  -2.600   0.1840   0.00486   0.00076  -0.1042   0.4095   0.0365
  -2.400   0.2075   0.00482   0.00074  -0.1043   0.4085   0.0394
  -2.200   0.2309   0.00481   0.00072  -0.1045   0.4056   0.0414
  -2.000   0.2541   0.00480   0.00071  -0.1047   0.3987   0.0454
  -1.800   0.2776   0.00479   0.00070  -0.1048   0.3935   0.0469
  -1.600   0.3010   0.00477   0.00069  -0.1050   0.3907   0.0521
  -1.400   0.3242   0.00478   0.00069  -0.1051   0.3830   0.0545
  -1.200   0.3476   0.00477   0.00068  -0.1053   0.3775   0.0599
  -1.000   0.3708   0.00477   0.00068  -0.1055   0.3726   0.0630
  -0.800   0.3940   0.00478   0.00069  -0.1056   0.3633   0.0696
  -0.600   0.4173   0.00477   0.00068  -0.1058   0.3598   0.0733
  -0.400   0.4403   0.00480   0.00070  -0.1059   0.3506   0.0810
  -0.200   0.4637   0.00479   0.00069  -0.1061   0.3458   0.0850
   0.000   0.4866   0.00483   0.00072  -0.1062   0.3351   0.0933
   0.200   0.5098   0.00484   0.00072  -0.1063   0.3291   0.0979
   0.400   0.5326   0.00488   0.00075  -0.1064   0.3173   0.1066
   0.600   0.5557   0.00490   0.00076  -0.1065   0.3114   0.1120
   0.800   0.5786   0.00494   0.00079  -0.1066   0.3006   0.1204
   1.000   0.6013   0.00499   0.00082  -0.1067   0.2904   0.1269
   1.200   0.6243   0.00502   0.00085  -0.1068   0.2815   0.1396
   1.400   0.6470   0.00508   0.00088  -0.1069   0.2694   0.1435
   1.600   0.6695   0.00515   0.00092  -0.1070   0.2554   0.1546
   1.800   0.6919   0.00523   0.00098  -0.1070   0.2426   0.1649
   2.000   0.7145   0.00530   0.00102  -0.1070   0.2322   0.1731
   2.200   0.7370   0.00536   0.00107  -0.1071   0.2204   0.1864
   2.400   0.7594   0.00544   0.00112  -0.1071   0.2075   0.1908
   2.600   0.7818   0.00552   0.00117  -0.1072   0.1950   0.2054
   2.800   0.8040   0.00562   0.00124  -0.1071   0.1806   0.2157
   3.000   0.8262   0.00572   0.00130  -0.1071   0.1674   0.2243
   3.200   0.8482   0.00581   0.00138  -0.1071   0.1541   0.2398
   3.400   0.8704   0.00591   0.00145  -0.1071   0.1447   0.2508
   3.600   0.8925   0.00600   0.00151  -0.1071   0.1335   0.2620
   4.000   0.9368   0.00618   0.00166  -0.1071   0.1126   0.2909
   4.200   0.9587   0.00629   0.00175  -0.1071   0.1027   0.3062
   4.400   0.9807   0.00638   0.00182  -0.1071   0.0949   0.3202
   4.600   1.0029   0.00646   0.00189  -0.1071   0.0867   0.3354
   4.800   1.0246   0.00658   0.00199  -0.1070   0.0763   0.3529
   5.000   1.0464   0.00668   0.00208  -0.1070   0.0709   0.3703
   5.400   1.0901   0.00686   0.00227  -0.1069   0.0573   0.4160
   5.600   1.1120   0.00693   0.00235  -0.1069   0.0537   0.4421
   5.800   1.1337   0.00702   0.00245  -0.1069   0.0477   0.4658
   6.000   1.1552   0.00713   0.00256  -0.1068   0.0428   0.4943
   6.200   1.1771   0.00720   0.00265  -0.1068   0.0400   0.5140
   6.400   1.1985   0.00730   0.00276  -0.1067   0.0362   0.5418
   6.600   1.2202   0.00738   0.00286  -0.1067   0.0333   0.5629
   6.800   1.2416   0.00750   0.00298  -0.1066   0.0298   0.5873
   7.000   1.2633   0.00756   0.00307  -0.1066   0.0284   0.6138
   7.200   1.2846   0.00767   0.00320  -0.1065   0.0262   0.6366
   7.400   1.3060   0.00775   0.00330  -0.1064   0.0240   0.6648
   7.600   1.3272   0.00785   0.00343  -0.1063   0.0224   0.6937
   7.800   1.3483   0.00795   0.00355  -0.1062   0.0201   0.7230
   8.000   1.3697   0.00802   0.00366  -0.1061   0.0196   0.7549
   8.200   1.3906   0.00812   0.00380  -0.1060   0.0183   0.7903
   8.400   1.4115   0.00820   0.00393  -0.1059   0.0167   0.8300
   8.600   1.4325   0.00825   0.00405  -0.1057   0.0163   0.8741
   8.800   1.4525   0.00832   0.00421  -0.1054   0.0149   0.9331
   9.000   1.4713   0.00836   0.00435  -0.1048   0.0137   0.9990
   9.200   1.4921   0.00849   0.00447  -0.1046   0.0134   1.0000
   9.400   1.5127   0.00864   0.00460  -0.1044   0.0130   1.0000
   9.600   1.5329   0.00881   0.00475  -0.1041   0.0122   1.0000
   9.800   1.5531   0.00896   0.00489  -0.1039   0.0113   1.0000
  10.000   1.5734   0.00911   0.00502  -0.1037   0.0109   1.0000
  10.200   1.5936   0.00926   0.00516  -0.1034   0.0107   1.0000
  10.400   1.6132   0.00945   0.00533  -0.1030   0.0100   1.0000
  10.600   1.6327   0.00963   0.00550  -0.1027   0.0094   1.0000
  10.800   1.6523   0.00980   0.00565  -0.1023   0.0087   1.0000
  11.000   1.6719   0.00996   0.00580  -0.1020   0.0086   1.0000
  11.200   1.6913   0.01012   0.00596  -0.1016   0.0085   1.0000
  11.400   1.7104   0.01030   0.00613  -0.1012   0.0083   1.0000
  11.600   1.7290   0.01051   0.00632  -0.1007   0.0079   1.0000
  11.800   1.7473   0.01071   0.00652  -0.1002   0.0075   1.0000
  12.000   1.7657   0.01091   0.00671  -0.0996   0.0071   1.0000
  12.200   1.7839   0.01111   0.00690  -0.0991   0.0067   1.0000
  12.400   1.8021   0.01130   0.00708  -0.0985   0.0067   1.0000
  12.600   1.8199   0.01149   0.00727  -0.0979   0.0066   1.0000
  12.800   1.8374   0.01170   0.00747  -0.0972   0.0065   1.0000
  13.000   1.8539   0.01193   0.00769  -0.0963   0.0063   1.0000
  13.200   1.8693   0.01218   0.00794  -0.0953   0.0060   1.0000
  13.400   1.8838   0.01243   0.00818  -0.0941   0.0057   1.0000
  13.600   1.8965   0.01268   0.00843  -0.0924   0.0054   1.0000
  13.800   1.9090   0.01294   0.00869  -0.0908   0.0052   1.0000
  14.000   1.9224   0.01320   0.00895  -0.0894   0.0050   1.0000
  14.200   1.9353   0.01347   0.00922  -0.0880   0.0050   1.0000
  14.400   1.9488   0.01375   0.00950  -0.0867   0.0050   1.0000
  14.600   1.9614   0.01406   0.00982  -0.0853   0.0050   1.0000
  14.800   1.9743   0.01438   0.01013  -0.0840   0.0049   1.0000
  15.000   1.9865   0.01473   0.01049  -0.0826   0.0049   1.0000
  15.200   1.9985   0.01510   0.01086  -0.0812   0.0048   1.0000
  15.400   2.0100   0.01550   0.01127  -0.0797   0.0047   1.0000
  15.600   2.0209   0.01595   0.01172  -0.0783   0.0046   1.0000
  15.800   2.0314   0.01643   0.01220  -0.0768   0.0044   1.0000
  16.000   2.0412   0.01695   0.01273  -0.0752   0.0042   1.0000
