  
       XFOIL         Version 6.99
  
 Calculated polar for: NACA 4412                                       
  
 1 1 Reynolds number fixed          Mach number fixed         
  
 xtrf =   1.000 (top)        1.000 (bottom)  
 Mach =   0.000     Re =    35.000 e 6     Ncrit =   9.000
  
   alpha    CL        CD       CDp       CM     Top_Xtr  Bot_Xtr
  ------ -------- --------- --------- -------- -------- --------
  -4.800  -0.0733   0.00520   0.00108  -0.1024   0.4697   0.0206
  -4.600  -0.0500   0.00519   0.00105  -0.1025   0.4616   0.0209
  -4.400  -0.0266   0.00515   0.00101  -0.1027   0.4569   0.0223
  -4.200  -0.0033   0.00511   0.00097  -0.1028   0.4529   0.0239
  -4.000   0.0200   0.00509   0.00094  -0.1030   0.4460   0.0247
  -3.800   0.0435   0.00506   0.00091  -0.1031   0.4413   0.0263
  -3.600   0.0669   0.00502   0.00088  -0.1033   0.4388   0.0283
  -3.400   0.0902   0.00501   0.00086  -0.1035   0.4340   0.0291
  -3.200   0.1136   0.00499   0.00084  -0.1036   0.4278   0.0308
  -3.000   0.1371   0.00495   0.00080  -0.1038   0.4249   0.0337
  -2.800   0.1606   0.00492   0.00078  -0.1040   0.4230   0.0348
  -2.600   0.1839   0.00490   0.00076  -0.1041   0.4190   0.0380
  -2.400   0.2073   0.00489   0.00075  -0.1043   0.4130   0.0399
  -2.200   0.2307   0.00486   0.00073  -0.1045   0.4094   0.0435
  -2.000   0.2542   0.00483   0.00071  -0.1046   0.4081   0.0463
  -1.800   0.2776   0.00482   0.00070  -0.1048   0.4041   0.0497
  -1.600   0.3008   0.00482   0.00070  -0.1050   0.3961   0.0539
  -1.400   0.3243   0.00480   0.00069  -0.1051   0.3930   0.0572
  -1.200   0.3476   0.00479   0.00068  -0.1053   0.3891   0.0622
  -1.000   0.3708   0.00481   0.00069  -0.1054   0.3800   0.0639
  -0.800   0.3942   0.00478   0.00067  -0.1056   0.3769   0.0724
  -0.600   0.4173   0.00481   0.00069  -0.1057   0.3698   0.0750
  -0.400   0.4405   0.00480   0.00068  -0.1059   0.3622   0.0841
  -0.200   0.4637   0.00482   0.00069  -0.1060   0.3575   0.0867
   0.000   0.4867   0.00483   0.00070  -0.1062   0.3470   0.0972
   0.200   0.5099   0.00486   0.00072  -0.1063   0.3416   0.1006
   0.400   0.5328   0.00487   0.00073  -0.1064   0.3312   0.1112
   0.600   0.5558   0.00492   0.00076  -0.1065   0.3239   0.1167
   0.800   0.5788   0.00493   0.00077  -0.1067   0.3152   0.1260
   1.000   0.6015   0.00499   0.00081  -0.1067   0.3037   0.1337
   1.200   0.6244   0.00502   0.00084  -0.1068   0.2950   0.1422
   1.400   0.6472   0.00507   0.00087  -0.1069   0.2841   0.1536
   1.600   0.6697   0.00514   0.00091  -0.1070   0.2704   0.1580
   1.800   0.6921   0.00521   0.00096  -0.1070   0.2580   0.1725
   2.000   0.7147   0.00529   0.00101  -0.1071   0.2469   0.1799
   2.200   0.7371   0.00536   0.00105  -0.1071   0.2341   0.1905
   2.400   0.7595   0.00543   0.00110  -0.1071   0.2216   0.2026
   2.600   0.7819   0.00551   0.00116  -0.1072   0.2090   0.2137
   2.800   0.8040   0.00561   0.00122  -0.1071   0.1945   0.2236
   3.000   0.8262   0.00570   0.00129  -0.1071   0.1811   0.2384
   3.200   0.8482   0.00581   0.00136  -0.1071   0.1662   0.2506
   3.400   0.8703   0.00591   0.00144  -0.1071   0.1545   0.2600
   3.600   0.8923   0.00601   0.00152  -0.1071   0.1429   0.2745
   3.800   0.9147   0.00607   0.00157  -0.1071   0.1361   0.2894
   4.200   0.9584   0.00629   0.00174  -0.1070   0.1116   0.3210
   4.400   0.9802   0.00641   0.00183  -0.1070   0.1004   0.3375
   4.600   1.0020   0.00651   0.00192  -0.1069   0.0925   0.3556
   5.200   1.0674   0.00680   0.00220  -0.1068   0.0684   0.4234
   5.400   1.0895   0.00686   0.00228  -0.1068   0.0639   0.4529
   5.600   1.1110   0.00696   0.00238  -0.1068   0.0560   0.4770
   5.800   1.1326   0.00706   0.00249  -0.1067   0.0518   0.5035
   6.000   1.1543   0.00715   0.00259  -0.1067   0.0464   0.5304
   6.200   1.1758   0.00725   0.00271  -0.1066   0.0412   0.5538
   6.400   1.1976   0.00732   0.00280  -0.1066   0.0392   0.5796
   6.600   1.2189   0.00744   0.00292  -0.1065   0.0342   0.6022
   6.800   1.2403   0.00753   0.00303  -0.1064   0.0321   0.6311
   7.000   1.2618   0.00762   0.00314  -0.1063   0.0288   0.6590
   7.200   1.2833   0.00770   0.00325  -0.1063   0.0278   0.6855
   7.400   1.3044   0.00780   0.00337  -0.1062   0.0251   0.7166
   8.000   1.3678   0.00805   0.00375  -0.1058   0.0200   0.8216
   8.200   1.3889   0.00811   0.00387  -0.1057   0.0193   0.8645
   8.400   1.4093   0.00819   0.00402  -0.1055   0.0178   0.9136
   8.600   1.4275   0.00820   0.00415  -0.1047   0.0166   0.9786
   8.800   1.4489   0.00832   0.00427  -0.1046   0.0159   1.0000
   9.000   1.4693   0.00849   0.00442  -0.1044   0.0147   1.0000
   9.200   1.4899   0.00863   0.00455  -0.1042   0.0136   1.0000
   9.400   1.5106   0.00877   0.00467  -0.1040   0.0134   1.0000
   9.600   1.5309   0.00893   0.00481  -0.1038   0.0128   1.0000
   9.800   1.5509   0.00910   0.00497  -0.1035   0.0120   1.0000
  10.000   1.5709   0.00926   0.00512  -0.1032   0.0111   1.0000
  10.200   1.5911   0.00941   0.00526  -0.1029   0.0109   1.0000
  10.400   1.6109   0.00958   0.00541  -0.1026   0.0105   1.0000
  10.600   1.6302   0.00977   0.00559  -0.1022   0.0099   1.0000
  10.800   1.6495   0.00995   0.00576  -0.1018   0.0092   1.0000
  11.000   1.6689   0.01013   0.00592  -0.1014   0.0087   1.0000
  11.200   1.6883   0.01029   0.00608  -0.1011   0.0086   1.0000
  11.400   1.7074   0.01047   0.00624  -0.1007   0.0085   1.0000
  11.600   1.7261   0.01066   0.00642  -0.1002   0.0083   1.0000
  11.800   1.7443   0.01087   0.00662  -0.0996   0.0079   1.0000
  12.000   1.7623   0.01109   0.00683  -0.0990   0.0075   1.0000
  12.200   1.7803   0.01129   0.00703  -0.0984   0.0070   1.0000
  12.400   1.7981   0.01150   0.00723  -0.0978   0.0067   1.0000
  12.600   1.8158   0.01170   0.00742  -0.0971   0.0067   1.0000
  12.800   1.8330   0.01190   0.00762  -0.0964   0.0066   1.0000
  13.000   1.8494   0.01212   0.00783  -0.0955   0.0065   1.0000
  13.200   1.8650   0.01236   0.00807  -0.0945   0.0063   1.0000
  13.400   1.8783   0.01261   0.00831  -0.0930   0.0061   1.0000
  13.600   1.8900   0.01290   0.00860  -0.0912   0.0058   1.0000
  13.800   1.9028   0.01317   0.00887  -0.0897   0.0055   1.0000
  14.000   1.9156   0.01345   0.00916  -0.0883   0.0053   1.0000
  14.200   1.9286   0.01375   0.00945  -0.0869   0.0050   1.0000
  14.400   1.9417   0.01405   0.00975  -0.0855   0.0050   1.0000
  14.600   1.9544   0.01436   0.01007  -0.0841   0.0050   1.0000
  14.800   1.9673   0.01469   0.01040  -0.0828   0.0050   1.0000
  15.000   1.9795   0.01505   0.01076  -0.0815   0.0049   1.0000
  15.200   1.9918   0.01541   0.01113  -0.0801   0.0049   1.0000
  15.400   2.0031   0.01583   0.01156  -0.0787   0.0048   1.0000
  15.600   2.0150   0.01625   0.01198  -0.0774   0.0048   1.0000
  15.800   2.0248   0.01676   0.01249  -0.0758   0.0046   1.0000
  16.000   2.0352   0.01727   0.01301  -0.0744   0.0045   1.0000
