  
       XFOIL         Version 6.99
  
 Calculated polar for: NACA 4412                                       
  
 1 1 Reynolds number fixed          Mach number fixed         
  
 xtrf =   1.000 (top)        1.000 (bottom)  
 Mach =   0.000     Re =    36.000 e 6     Ncrit =   9.000
  
   alpha    CL        CD       CDp       CM     Top_Xtr  Bot_Xtr
  ------ -------- --------- --------- -------- -------- --------
  -4.800  -0.0734   0.00520   0.00108  -0.1024   0.4662   0.0206
  -4.700  -0.0618   0.00519   0.00106  -0.1024   0.4616   0.0207
  -4.600  -0.0501   0.00518   0.00105  -0.1025   0.4579   0.0208
  -4.500  -0.0383   0.00516   0.00102  -0.1026   0.4570   0.0211
  -4.400  -0.0266   0.00514   0.00101  -0.1027   0.4556   0.0221
  -4.300  -0.0149   0.00512   0.00099  -0.1028   0.4536   0.0229
  -4.200  -0.0034   0.00511   0.00097  -0.1028   0.4499   0.0237
  -4.100   0.0083   0.00509   0.00095  -0.1029   0.4468   0.0244
  -4.000   0.0200   0.00508   0.00094  -0.1030   0.4425   0.0247
  -3.900   0.0317   0.00506   0.00092  -0.1031   0.4413   0.0250
  -3.800   0.0435   0.00505   0.00091  -0.1032   0.4406   0.0260
  -3.700   0.0552   0.00503   0.00089  -0.1032   0.4391   0.0271
  -3.600   0.0669   0.00501   0.00088  -0.1033   0.4368   0.0280
  -3.500   0.0785   0.00500   0.00086  -0.1034   0.4342   0.0287
  -3.400   0.0902   0.00500   0.00085  -0.1035   0.4311   0.0290
  -3.300   0.1019   0.00499   0.00085  -0.1035   0.4283   0.0292
  -3.200   0.1136   0.00497   0.00083  -0.1036   0.4256   0.0304
  -3.100   0.1254   0.00495   0.00081  -0.1037   0.4250   0.0324
  -3.000   0.1371   0.00493   0.00080  -0.1038   0.4241   0.0335
  -2.900   0.1488   0.00492   0.00079  -0.1039   0.4230   0.0340
  -2.800   0.1606   0.00491   0.00078  -0.1040   0.4211   0.0345
  -2.700   0.1722   0.00491   0.00077  -0.1040   0.4188   0.0362
  -2.600   0.1839   0.00490   0.00077  -0.1041   0.4165   0.0376
  -2.500   0.1956   0.00488   0.00076  -0.1042   0.4135   0.0392
  -2.400   0.2073   0.00487   0.00075  -0.1043   0.4103   0.0398
  -2.300   0.2191   0.00486   0.00074  -0.1044   0.4094   0.0405
  -2.200   0.2308   0.00485   0.00073  -0.1045   0.4089   0.0430
  -2.100   0.2425   0.00483   0.00072  -0.1046   0.4081   0.0453
  -2.000   0.2543   0.00482   0.00071  -0.1047   0.4067   0.0462
  -1.900   0.2659   0.00482   0.00071  -0.1047   0.4043   0.0466
  -1.800   0.2775   0.00482   0.00071  -0.1048   0.4011   0.0489
  -1.700   0.2892   0.00482   0.00070  -0.1049   0.3965   0.0509
  -1.600   0.3008   0.00480   0.00069  -0.1050   0.3937   0.0536
  -1.500   0.3126   0.00480   0.00069  -0.1051   0.3930   0.0544
  -1.400   0.3243   0.00479   0.00068  -0.1052   0.3920   0.0565
  -1.300   0.3360   0.00479   0.00068  -0.1052   0.3897   0.0594
  -1.200   0.3475   0.00479   0.00068  -0.1053   0.3856   0.0618
  -1.100   0.3591   0.00479   0.00068  -0.1054   0.3812   0.0633
  -1.000   0.3708   0.00480   0.00068  -0.1054   0.3779   0.0634
  -0.900   0.3825   0.00478   0.00068  -0.1055   0.3770   0.0688
  -0.800   0.3942   0.00478   0.00067  -0.1056   0.3749   0.0719
  -0.700   0.4057   0.00479   0.00068  -0.1057   0.3708   0.0734
  -0.600   0.4172   0.00481   0.00069  -0.1057   0.3652   0.0739
  -0.500   0.4289   0.00480   0.00068  -0.1058   0.3622   0.0802
  -0.400   0.4406   0.00479   0.00068  -0.1059   0.3611   0.0836
  -0.300   0.4522   0.00480   0.00069  -0.1060   0.3584   0.0850
  -0.200   0.4636   0.00482   0.00070  -0.1060   0.3536   0.0857
  -0.100   0.4752   0.00483   0.00071  -0.1061   0.3478   0.0910
   0.000   0.4868   0.00482   0.00070  -0.1062   0.3460   0.0966
   0.100   0.4983   0.00483   0.00071  -0.1062   0.3427   0.0979
   0.200   0.5097   0.00486   0.00073  -0.1063   0.3368   0.0991
   0.300   0.5213   0.00487   0.00073  -0.1064   0.3317   0.1049
   0.400   0.5329   0.00486   0.00073  -0.1064   0.3298   0.1105
   0.500   0.5443   0.00489   0.00075  -0.1065   0.3258   0.1120
   0.600   0.5557   0.00492   0.00077  -0.1065   0.3183   0.1148
   0.700   0.5673   0.00492   0.00077  -0.1066   0.3157   0.1196
   0.800   0.5788   0.00492   0.00078  -0.1067   0.3131   0.1252
   0.900   0.5901   0.00497   0.00080  -0.1067   0.3057   0.1267
   1.000   0.6016   0.00498   0.00081  -0.1067   0.3007   0.1319
   1.100   0.6131   0.00499   0.00082  -0.1068   0.2979   0.1384
   1.200   0.6242   0.00504   0.00085  -0.1068   0.2894   0.1418
   1.300   0.6357   0.00505   0.00086  -0.1069   0.2851   0.1446
   1.400   0.6471   0.00508   0.00087  -0.1069   0.2809   0.1512
   1.500   0.6583   0.00511   0.00090  -0.1069   0.2728   0.1555
   1.600   0.6698   0.00513   0.00091  -0.1070   0.2687   0.1575
   1.700   0.6808   0.00519   0.00094  -0.1070   0.2610   0.1653
   1.800   0.6922   0.00520   0.00095  -0.1070   0.2550   0.1716
   1.900   0.7036   0.00523   0.00097  -0.1071   0.2513   0.1734
   2.000   0.7146   0.00529   0.00101  -0.1070   0.2412   0.1766
   2.100   0.7259   0.00532   0.00103  -0.1071   0.2367   0.1852
   2.200   0.7370   0.00537   0.00106  -0.1071   0.2285   0.1899
   2.300   0.7484   0.00539   0.00108  -0.1071   0.2240   0.1927
   2.400   0.7593   0.00546   0.00112  -0.1071   0.2159   0.1995
   2.500   0.7706   0.00548   0.00114  -0.1071   0.2101   0.2055
   2.600   0.7818   0.00552   0.00117  -0.1071   0.2055   0.2097
   2.700   0.7928   0.00557   0.00120  -0.1071   0.1959   0.2185
   2.800   0.8039   0.00562   0.00123  -0.1071   0.1909   0.2227
   2.900   0.8150   0.00567   0.00127  -0.1071   0.1829   0.2261
   3.100   0.8371   0.00577   0.00134  -0.1071   0.1702   0.2404
   3.200   0.8483   0.00581   0.00136  -0.1071   0.1647   0.2469
   3.300   0.8592   0.00587   0.00141  -0.1071   0.1579   0.2529
   3.400   0.8705   0.00590   0.00143  -0.1071   0.1527   0.2574
   3.500   0.8815   0.00595   0.00147  -0.1071   0.1484   0.2624
   3.600   0.8924   0.00600   0.00151  -0.1071   0.1393   0.2731
   3.800   0.9146   0.00609   0.00158  -0.1071   0.1321   0.2861
   3.900   0.9256   0.00614   0.00161  -0.1071   0.1249   0.2910
   4.000   0.9367   0.00618   0.00165  -0.1071   0.1218   0.3035
   4.100   0.9475   0.00625   0.00171  -0.1071   0.1132   0.3083
   4.200   0.9586   0.00628   0.00173  -0.1071   0.1107   0.3154
   4.300   0.9693   0.00636   0.00179  -0.1070   0.1036   0.3233
   4.400   0.9805   0.00639   0.00182  -0.1070   0.0993   0.3308
   4.500   0.9915   0.00644   0.00186  -0.1070   0.0965   0.3404
   4.600   1.0022   0.00651   0.00192  -0.1070   0.0900   0.3483
   4.800   1.0241   0.00660   0.00200  -0.1069   0.0830   0.3667
   4.900   1.0350   0.00665   0.00205  -0.1069   0.0785   0.3768
   5.000   1.0461   0.00668   0.00208  -0.1069   0.0754   0.3890
   5.100   1.0569   0.00673   0.00214  -0.1069   0.0721   0.4043
   5.200   1.0677   0.00679   0.00219  -0.1069   0.0663   0.4113
   5.400   1.0896   0.00686   0.00228  -0.1068   0.0623   0.4435
   5.500   1.1003   0.00692   0.00234  -0.1068   0.0568   0.4591
   5.600   1.1113   0.00695   0.00237  -0.1068   0.0557   0.4653
   5.700   1.1222   0.00700   0.00242  -0.1068   0.0539   0.4789
   5.800   1.1329   0.00705   0.00248  -0.1067   0.0505   0.4941
   5.900   1.1438   0.00709   0.00253  -0.1067   0.0477   0.5091
   6.000   1.1545   0.00714   0.00259  -0.1067   0.0455   0.5224
   6.100   1.1652   0.00720   0.00265  -0.1066   0.0430   0.5312
   6.300   1.1871   0.00727   0.00273  -0.1066   0.0400   0.5582
   6.400   1.1978   0.00732   0.00279  -0.1066   0.0385   0.5688
   6.500   1.2085   0.00738   0.00285  -0.1065   0.0364   0.5804
   6.600   1.2193   0.00742   0.00290  -0.1065   0.0341   0.5933
   6.700   1.2301   0.00746   0.00295  -0.1065   0.0333   0.6068
   6.800   1.2406   0.00752   0.00302  -0.1064   0.0315   0.6189
   6.900   1.2513   0.00757   0.00307  -0.1064   0.0298   0.6316
   7.000   1.2622   0.00760   0.00312  -0.1064   0.0287   0.6475
   7.100   1.2730   0.00764   0.00317  -0.1064   0.0283   0.6622
   7.200   1.2837   0.00769   0.00323  -0.1063   0.0275   0.6730
   7.300   1.2942   0.00775   0.00330  -0.1063   0.0262   0.6864
   7.400   1.3048   0.00779   0.00336  -0.1062   0.0246   0.7020
   7.500   1.3155   0.00783   0.00341  -0.1062   0.0239   0.7167
   7.600   1.3262   0.00786   0.00347  -0.1062   0.0235   0.7337
   7.700   1.3366   0.00793   0.00354  -0.1061   0.0222   0.7505
   7.800   1.3471   0.00797   0.00361  -0.1060   0.0211   0.7676
   7.900   1.3577   0.00801   0.00367  -0.1060   0.0201   0.7851
   8.000   1.3683   0.00804   0.00372  -0.1059   0.0199   0.8033
   8.100   1.3789   0.00807   0.00378  -0.1059   0.0196   0.8227
   8.200   1.3894   0.00812   0.00385  -0.1058   0.0191   0.8432
   8.300   1.3996   0.00816   0.00392  -0.1057   0.0184   0.8663
   8.400   1.4100   0.00820   0.00399  -0.1056   0.0175   0.8886
   8.500   1.4202   0.00822   0.00406  -0.1055   0.0167   0.9166
   8.600   1.4301   0.00822   0.00413  -0.1053   0.0165   0.9485
   8.700   1.4380   0.00822   0.00419  -0.1046   0.0163   0.9848
   8.800   1.4493   0.00829   0.00426  -0.1047   0.0157   1.0000
   8.900   1.4596   0.00838   0.00433  -0.1046   0.0151   1.0000
   9.000   1.4698   0.00846   0.00440  -0.1045   0.0144   1.0000
   9.100   1.4801   0.00853   0.00447  -0.1044   0.0138   1.0000
   9.200   1.4905   0.00860   0.00453  -0.1043   0.0135   1.0000
   9.300   1.5009   0.00866   0.00459  -0.1042   0.0134   1.0000
   9.400   1.5111   0.00873   0.00465  -0.1041   0.0133   1.0000
   9.500   1.5213   0.00881   0.00472  -0.1040   0.0130   1.0000
   9.600   1.5314   0.00889   0.00480  -0.1039   0.0127   1.0000
   9.700   1.5414   0.00898   0.00487  -0.1037   0.0123   1.0000
   9.800   1.5514   0.00907   0.00495  -0.1036   0.0118   1.0000
   9.900   1.5615   0.00915   0.00502  -0.1034   0.0114   1.0000
  10.000   1.5716   0.00922   0.00509  -0.1033   0.0110   1.0000
  10.100   1.5817   0.00930   0.00516  -0.1032   0.0109   1.0000
  10.200   1.5917   0.00937   0.00523  -0.1031   0.0108   1.0000
  10.300   1.6017   0.00945   0.00530  -0.1029   0.0107   1.0000
  10.400   1.6115   0.00954   0.00539  -0.1027   0.0104   1.0000
  10.500   1.6212   0.00963   0.00547  -0.1026   0.0101   1.0000
  10.600   1.6309   0.00973   0.00556  -0.1023   0.0098   1.0000
  10.700   1.6405   0.00982   0.00565  -0.1021   0.0094   1.0000
  10.800   1.6502   0.00991   0.00573  -0.1020   0.0091   1.0000
  10.900   1.6600   0.01000   0.00581  -0.1018   0.0088   1.0000
  11.000   1.6697   0.01008   0.00589  -0.1016   0.0087   1.0000
  11.100   1.6794   0.01016   0.00597  -0.1014   0.0086   1.0000
  11.200   1.6891   0.01025   0.00605  -0.1012   0.0086   1.0000
  11.300   1.6987   0.01033   0.00613  -0.1010   0.0085   1.0000
  11.400   1.7082   0.01042   0.00621  -0.1008   0.0085   1.0000
  11.500   1.7176   0.01052   0.00630  -0.1006   0.0084   1.0000
  11.600   1.7269   0.01062   0.00640  -0.1003   0.0082   1.0000
  11.700   1.7361   0.01072   0.00650  -0.1000   0.0080   1.0000
  11.800   1.7451   0.01083   0.00660  -0.0997   0.0078   1.0000
  11.900   1.7542   0.01094   0.00670  -0.0995   0.0076   1.0000
  12.000   1.7632   0.01104   0.00680  -0.0992   0.0074   1.0000
  12.100   1.7722   0.01114   0.00690  -0.0989   0.0072   1.0000
  12.200   1.7812   0.01125   0.00700  -0.0986   0.0069   1.0000
  12.300   1.7902   0.01135   0.00709  -0.0983   0.0068   1.0000
  12.400   1.7991   0.01145   0.00719  -0.0980   0.0067   1.0000
  12.500   1.8080   0.01154   0.00728  -0.0977   0.0067   1.0000
  12.600   1.8169   0.01164   0.00738  -0.0973   0.0067   1.0000
  12.700   1.8256   0.01175   0.00748  -0.0970   0.0066   1.0000
  12.800   1.8342   0.01185   0.00758  -0.0966   0.0066   1.0000
  12.900   1.8425   0.01196   0.00769  -0.0962   0.0066   1.0000
  13.000   1.8507   0.01207   0.00779  -0.0958   0.0065   1.0000
  13.100   1.8583   0.01220   0.00792  -0.0952   0.0063   1.0000
  13.200   1.8662   0.01231   0.00803  -0.0947   0.0062   1.0000
  13.300   1.8731   0.01244   0.00816  -0.0940   0.0061   1.0000
  13.400   1.8797   0.01256   0.00828  -0.0933   0.0060   1.0000
  13.500   1.8855   0.01271   0.00843  -0.0924   0.0058   1.0000
  13.600   1.8916   0.01284   0.00856  -0.0915   0.0057   1.0000
  13.700   1.8979   0.01297   0.00869  -0.0907   0.0056   1.0000
  13.800   1.9044   0.01311   0.00882  -0.0900   0.0054   1.0000
  13.900   1.9110   0.01325   0.00896  -0.0893   0.0053   1.0000
  14.000   1.9174   0.01339   0.00910  -0.0886   0.0052   1.0000
  14.100   1.9237   0.01353   0.00925  -0.0878   0.0051   1.0000
  14.200   1.9303   0.01367   0.00939  -0.0871   0.0050   1.0000
  14.300   1.9371   0.01382   0.00953  -0.0865   0.0050   1.0000
  14.400   1.9436   0.01397   0.00969  -0.0858   0.0050   1.0000
  14.500   1.9498   0.01412   0.00984  -0.0851   0.0050   1.0000
  14.600   1.9562   0.01428   0.01000  -0.0844   0.0050   1.0000
  14.700   1.9628   0.01444   0.01016  -0.0838   0.0050   1.0000
  14.800   1.9692   0.01460   0.01033  -0.0831   0.0050   1.0000
  14.900   1.9752   0.01478   0.01051  -0.0824   0.0049   1.0000
  15.000   1.9813   0.01496   0.01069  -0.0817   0.0049   1.0000
  15.100   1.9875   0.01514   0.01087  -0.0811   0.0049   1.0000
  15.200   1.9937   0.01533   0.01106  -0.0804   0.0049   1.0000
  15.300   1.9994   0.01553   0.01126  -0.0797   0.0049   1.0000
  15.400   2.0049   0.01574   0.01148  -0.0790   0.0048   1.0000
  15.500   2.0108   0.01595   0.01169  -0.0783   0.0048   1.0000
  15.600   2.0166   0.01617   0.01191  -0.0776   0.0047   1.0000
  15.700   2.0217   0.01642   0.01216  -0.0769   0.0046   1.0000
  15.800   2.0265   0.01667   0.01242  -0.0761   0.0046   1.0000
  15.900   2.0313   0.01694   0.01269  -0.0753   0.0045   1.0000
  16.000   2.0367   0.01719   0.01294  -0.0746   0.0044   1.0000
  16.100   2.0416   0.01746   0.01322  -0.0739   0.0044   1.0000
  16.200   2.0461   0.01776   0.01352  -0.0731   0.0043   1.0000
  16.300   2.0511   0.01804   0.01380  -0.0724   0.0042   1.0000
  16.400   2.0564   0.01831   0.01407  -0.0717   0.0041   1.0000
  16.500   2.0606   0.01863   0.01439  -0.0710   0.0040   1.0000
  16.600   2.0651   0.01894   0.01471  -0.0702   0.0040   1.0000
  16.700   2.0701   0.01923   0.01500  -0.0696   0.0039   1.0000
  16.800   2.0749   0.01954   0.01532  -0.0689   0.0038   1.0000
  16.900   2.0788   0.01990   0.01569  -0.0682   0.0037   1.0000
  17.000   2.0834   0.02024   0.01602  -0.0675   0.0037   1.0000
  17.100   2.0883   0.02056   0.01635  -0.0669   0.0036   1.0000
  17.200   2.0927   0.02091   0.01671  -0.0663   0.0036   1.0000
  17.300   2.0966   0.02129   0.01709  -0.0656   0.0036   1.0000
  17.400   2.1010   0.02163   0.01744  -0.0649   0.0036   1.0000
  17.500   2.1057   0.02198   0.01780  -0.0643   0.0036   1.0000
  17.600   2.1091   0.02240   0.01823  -0.0637   0.0036   1.0000
  17.700   2.1131   0.02280   0.01863  -0.0630   0.0036   1.0000
  17.800   2.1175   0.02318   0.01901  -0.0625   0.0036   1.0000
  17.900   2.1212   0.02361   0.01946  -0.0618   0.0036   1.0000
  18.000   2.1245   0.02407   0.01993  -0.0612   0.0036   1.0000
  18.100   2.1286   0.02449   0.02035  -0.0607   0.0035   1.0000
  18.200   2.1325   0.02493   0.02079  -0.0601   0.0035   1.0000
  18.300   2.1350   0.02546   0.02133  -0.0594   0.0035   1.0000
  18.400   2.1385   0.02592   0.02180  -0.0589   0.0035   1.0000
  18.500   2.1419   0.02639   0.02228  -0.0583   0.0035   1.0000
  18.600   2.1440   0.02697   0.02287  -0.0577   0.0035   1.0000
  18.700   2.1470   0.02750   0.02340  -0.0571   0.0035   1.0000
  18.800   2.1505   0.02800   0.02391  -0.0566   0.0035   1.0000
  18.900   2.1520   0.02866   0.02459  -0.0560   0.0034   1.0000
  19.000   2.1549   0.02922   0.02516  -0.0555   0.0034   1.0000
  19.100   2.1581   0.02976   0.02571  -0.0550   0.0034   1.0000
  19.200   2.1593   0.03050   0.02645  -0.0545   0.0034   1.0000
  19.300   2.1618   0.03112   0.02708  -0.0540   0.0034   1.0000
  19.400   2.1637   0.03179   0.02776  -0.0535   0.0033   1.0000
  19.500   2.1646   0.03256   0.02854  -0.0530   0.0033   1.0000
  19.600   2.1668   0.03320   0.02919  -0.0525   0.0033   1.0000
  19.700   2.1678   0.03399   0.02999  -0.0520   0.0033   1.0000
  19.800   2.1685   0.03480   0.03082  -0.0515   0.0032   1.0000
  19.900   2.1704   0.03551   0.03154  -0.0511   0.0032   1.0000
  20.000   2.1702   0.03645   0.03249  -0.0507   0.0031   1.0000
  20.100   2.1714   0.03725   0.03330  -0.0503   0.0031   1.0000
  20.200   2.1717   0.03816   0.03423  -0.0499   0.0031   1.0000
  20.300   2.1715   0.03913   0.03520  -0.0495   0.0030   1.0000
  20.400   2.1736   0.03986   0.03594  -0.0492   0.0030   1.0000
  20.500   2.1729   0.04091   0.03701  -0.0489   0.0030   1.0000
  20.600   2.1739   0.04175   0.03787  -0.0486   0.0030   1.0000
  20.700   2.1734   0.04275   0.03888  -0.0482   0.0029   1.0000
  20.800   2.1723   0.04384   0.03998  -0.0479   0.0028   1.0000
  20.900   2.1736   0.04467   0.04082  -0.0476   0.0028   1.0000
  21.000   2.1717   0.04590   0.04207  -0.0474   0.0028   1.0000
  21.100   2.1718   0.04688   0.04306  -0.0472   0.0027   1.0000
  21.200   2.1710   0.04799   0.04418  -0.0469   0.0027   1.0000
  21.300   2.1699   0.04915   0.04536  -0.0468   0.0027   1.0000
  21.400   2.1704   0.05009   0.04632  -0.0466   0.0026   1.0000
  21.500   2.1681   0.05143   0.04767  -0.0464   0.0026   1.0000
  21.600   2.1675   0.05252   0.04878  -0.0463   0.0026   1.0000
  21.700   2.1658   0.05376   0.05003  -0.0461   0.0025   1.0000
  21.800   2.1639   0.05501   0.05130  -0.0460   0.0025   1.0000
  21.900   2.1634   0.05608   0.05238  -0.0459   0.0025   1.0000
  22.000   2.1599   0.05757   0.05390  -0.0458   0.0025   1.0000
  22.100   2.1591   0.05870   0.05504  -0.0457   0.0025   1.0000
  22.200   2.1564   0.06010   0.05646  -0.0457   0.0024   1.0000
  22.300   2.1539   0.06149   0.05787  -0.0457   0.0024   1.0000
  22.400   2.1534   0.06259   0.05899  -0.0456   0.0024   1.0000
  22.500   2.1490   0.06425   0.06067  -0.0457   0.0024   1.0000
  22.600   2.1477   0.06548   0.06191  -0.0457   0.0024   1.0000
  22.700   2.1456   0.06683   0.06328  -0.0457   0.0024   1.0000
  22.800   2.1414   0.06846   0.06493  -0.0458   0.0024   1.0000
  22.900   2.1402   0.06967   0.06615  -0.0459   0.0024   1.0000
  23.000   2.1346   0.07145   0.06796  -0.0460   0.0024   1.0000
  23.100   2.1322   0.07283   0.06936  -0.0461   0.0024   1.0000
  23.200   2.1309   0.07406   0.07060  -0.0461   0.0024   1.0000
  23.300   2.1243   0.07605   0.07262  -0.0464   0.0024   1.0000
  23.400   2.1224   0.07738   0.07397  -0.0465   0.0024   1.0000
  23.500   2.1176   0.07912   0.07573  -0.0467   0.0024   1.0000
  23.600   2.1132   0.08080   0.07743  -0.0470   0.0024   1.0000
  23.700   2.1114   0.08213   0.07878  -0.0471   0.0024   1.0000
  23.800   2.1043   0.08422   0.08090  -0.0475   0.0024   1.0000
  23.900   2.1014   0.08571   0.08240  -0.0477   0.0024   1.0000
  24.000   2.0994   0.08705   0.08376  -0.0479   0.0024   1.0000
  24.100   2.0907   0.08933   0.08607  -0.0483   0.0024   1.0000
  24.200   2.0878   0.09079   0.08755  -0.0486   0.0024   1.0000
  24.300   2.0856   0.09218   0.08895  -0.0488   0.0024   1.0000
  24.400   2.0764   0.09459   0.09139  -0.0494   0.0024   1.0000
  24.500   2.0737   0.09606   0.09288  -0.0497   0.0024   1.0000
  24.600   2.0714   0.09749   0.09432  -0.0500   0.0024   1.0000
  24.700   2.0618   0.09999   0.09686  -0.0507   0.0024   1.0000
  24.800   2.0591   0.10148   0.09836  -0.0510   0.0024   1.0000
  24.900   2.0568   0.10291   0.09981  -0.0514   0.0024   1.0000
  25.000   2.0465   0.10552   0.10246  -0.0522   0.0024   1.0000
  25.100   2.0437   0.10702   0.10398  -0.0526   0.0024   1.0000
  25.200   2.0412   0.10845   0.10542  -0.0529   0.0024   1.0000
  25.300   2.0304   0.11112   0.10812  -0.0538   0.0024   1.0000
  25.400   2.0273   0.11268   0.10970  -0.0543   0.0024   1.0000
  25.500   2.0248   0.11414   0.11118  -0.0547   0.0024   1.0000
  25.600   2.0143   0.11684   0.11391  -0.0557   0.0024   1.0000
  25.700   2.0110   0.11846   0.11554  -0.0563   0.0024   1.0000
  25.800   2.0087   0.11992   0.11702  -0.0568   0.0024   1.0000
  25.900   1.9988   0.12258   0.11971  -0.0579   0.0024   1.0000
  26.000   1.9949   0.12429   0.12145  -0.0586   0.0024   1.0000
  26.100   1.9927   0.12576   0.12293  -0.0591   0.0024   1.0000
  26.200   1.9851   0.12808   0.12528  -0.0601   0.0024   1.0000
  26.300   1.9789   0.13019   0.12742  -0.0611   0.0024   1.0000
  26.400   1.9766   0.13167   0.12890  -0.0617   0.0024   1.0000
  26.500   1.9739   0.13317   0.13043  -0.0624   0.0024   1.0000
  26.600   1.9623   0.13613   0.13342  -0.0638   0.0023   1.0000
  26.700   1.9597   0.13767   0.13497  -0.0645   0.0023   1.0000
  26.800   1.9570   0.13922   0.13654  -0.0653   0.0023   1.0000
  26.900   1.9463   0.14211   0.13947  -0.0668   0.0023   1.0000
  27.000   1.9435   0.14372   0.14109  -0.0676   0.0023   1.0000
  27.100   1.9413   0.14521   0.14260  -0.0684   0.0023   1.0000
  27.200   1.9321   0.14790   0.14532  -0.0699   0.0023   1.0000
  27.300   1.9272   0.14989   0.14733  -0.0711   0.0023   1.0000
  27.400   1.9250   0.15141   0.14887  -0.0719   0.0023   1.0000
  27.500   1.9227   0.15294   0.15041  -0.0728   0.0023   1.0000
  27.600   1.9106   0.15619   0.15370  -0.0748   0.0023   1.0000
  27.700   1.9086   0.15770   0.15522  -0.0758   0.0023   1.0000
  27.800   1.9063   0.15926   0.15680  -0.0767   0.0023   1.0000
  27.900   1.8946   0.16249   0.16007  -0.0788   0.0023   1.0000
  28.000   1.8919   0.16413   0.16172  -0.0799   0.0023   1.0000
  28.100   1.8896   0.16567   0.16328  -0.0809   0.0022   1.0000
  28.200   1.8872   0.16722   0.16484  -0.0820   0.0022   1.0000
  28.300   1.8758   0.17039   0.16805  -0.0841   0.0023   1.0000
  28.400   1.8730   0.17206   0.16974  -0.0853   0.0022   1.0000
  28.500   1.8696   0.17384   0.17153  -0.0866   0.0022   1.0000
  28.600   1.8581   0.17712   0.17486  -0.0889   0.0022   1.0000
  28.700   1.8550   0.17889   0.17664  -0.0902   0.0022   1.0000
  28.800   1.8533   0.18039   0.17816  -0.0913   0.0022   1.0000
  28.900   1.8396   0.18416   0.18197  -0.0941   0.0022   1.0000
  29.000   1.8380   0.18567   0.18350  -0.0953   0.0022   1.0000
  29.100   1.8341   0.18761   0.18545  -0.0968   0.0021   1.0000
  29.200   1.8333   0.18897   0.18683  -0.0979   0.0021   1.0000
  29.400   1.8175   0.19447   0.19238  -0.1023   0.0021   1.0000
  29.500   1.8157   0.19603   0.19396  -0.1036   0.0021   1.0000
  29.700   1.7975   0.20211   0.20010  -0.1085   0.0021   1.0000
  29.800   1.7955   0.20373   0.20174  -0.1099   0.0020   1.0000
  29.900   1.7926   0.20554   0.20356  -0.1114   0.0020   1.0000
  30.000   1.7798   0.20943   0.20750  -0.1147   0.0020   1.0000
