  
       XFOIL         Version 6.99
  
 Calculated polar for: NACA 4412                                       
  
 1 1 Reynolds number fixed          Mach number fixed         
  
 xtrf =   1.000 (top)        1.000 (bottom)  
 Mach =   0.000     Re =    16.000 e 6     Ncrit =   9.000
  
   alpha    CL        CD       CDp       CM     Top_Xtr  Bot_Xtr
  ------ -------- --------- --------- -------- -------- --------
  -4.900  -0.0831   0.00556   0.00121  -0.1024   0.5581   0.0240
  -4.800  -0.0714   0.00554   0.00118  -0.1025   0.5542   0.0244
  -4.700  -0.0598   0.00553   0.00116  -0.1026   0.5511   0.0247
  -4.600  -0.0483   0.00552   0.00115  -0.1026   0.5457   0.0252
  -4.500  -0.0368   0.00551   0.00113  -0.1027   0.5394   0.0265
  -4.400  -0.0251   0.00548   0.00110  -0.1027   0.5370   0.0274
  -4.300  -0.0135   0.00546   0.00107  -0.1028   0.5340   0.0282
  -4.200  -0.0020   0.00546   0.00106  -0.1029   0.5290   0.0287
  -4.100   0.0095   0.00545   0.00104  -0.1029   0.5230   0.0290
  -4.000   0.0212   0.00544   0.00102  -0.1030   0.5205   0.0295
  -3.900   0.0328   0.00542   0.00101  -0.1030   0.5170   0.0308
  -3.800   0.0443   0.00541   0.00099  -0.1031   0.5124   0.0321
  -3.700   0.0559   0.00540   0.00097  -0.1031   0.5068   0.0332
  -3.600   0.0675   0.00538   0.00095  -0.1032   0.5047   0.0338
  -3.500   0.0792   0.00537   0.00094  -0.1033   0.5016   0.0343
  -3.400   0.0907   0.00536   0.00092  -0.1034   0.4978   0.0362
  -3.300   0.1022   0.00536   0.00091  -0.1034   0.4919   0.0376
  -3.200   0.1139   0.00534   0.00089  -0.1035   0.4893   0.0390
  -3.100   0.1255   0.00532   0.00088  -0.1035   0.4870   0.0396
  -3.000   0.1372   0.00532   0.00087  -0.1036   0.4839   0.0401
  -2.900   0.1487   0.00532   0.00086  -0.1037   0.4801   0.0425
  -2.800   0.1603   0.00530   0.00085  -0.1037   0.4752   0.0444
  -2.700   0.1719   0.00528   0.00083  -0.1038   0.4731   0.0460
  -2.600   0.1836   0.00527   0.00082  -0.1039   0.4713   0.0466
  -2.500   0.1953   0.00527   0.00081  -0.1040   0.4689   0.0486
  -2.400   0.2068   0.00526   0.00080  -0.1040   0.4653   0.0512
  -2.300   0.2184   0.00525   0.00079  -0.1041   0.4618   0.0532
  -2.200   0.2300   0.00524   0.00078  -0.1042   0.4578   0.0541
  -2.100   0.2417   0.00523   0.00077  -0.1042   0.4567   0.0561
  -2.000   0.2534   0.00521   0.00076  -0.1043   0.4552   0.0597
  -1.900   0.2650   0.00519   0.00075  -0.1044   0.4528   0.0621
  -1.800   0.2766   0.00519   0.00075  -0.1045   0.4502   0.0631
  -1.700   0.2882   0.00520   0.00075  -0.1045   0.4464   0.0649
  -1.600   0.2998   0.00519   0.00074  -0.1046   0.4431   0.0686
  -1.500   0.3114   0.00517   0.00073  -0.1047   0.4413   0.0717
  -1.400   0.3231   0.00516   0.00072  -0.1048   0.4403   0.0735
  -1.300   0.3348   0.00515   0.00072  -0.1049   0.4388   0.0766
  -1.200   0.3465   0.00514   0.00072  -0.1049   0.4368   0.0809
  -1.100   0.3580   0.00513   0.00071  -0.1050   0.4345   0.0837
  -1.000   0.3696   0.00513   0.00071  -0.1051   0.4317   0.0860
  -0.900   0.3812   0.00513   0.00071  -0.1051   0.4285   0.0896
  -0.800   0.3928   0.00511   0.00071  -0.1052   0.4255   0.0950
  -0.700   0.4045   0.00510   0.00070  -0.1053   0.4249   0.0974
  -0.600   0.4163   0.00510   0.00070  -0.1054   0.4239   0.0995
  -0.500   0.4279   0.00509   0.00070  -0.1055   0.4223   0.1059
  -0.400   0.4395   0.00507   0.00070  -0.1056   0.4203   0.1106
  -0.300   0.4511   0.00508   0.00070  -0.1056   0.4178   0.1121
  -0.200   0.4626   0.00509   0.00071  -0.1057   0.4150   0.1176
  -0.100   0.4742   0.00508   0.00071  -0.1058   0.4119   0.1236
   0.000   0.4858   0.00507   0.00071  -0.1058   0.4095   0.1266
   0.100   0.4975   0.00507   0.00071  -0.1059   0.4088   0.1310
   0.200   0.5092   0.00505   0.00071  -0.1060   0.4079   0.1372
   0.300   0.5208   0.00505   0.00072  -0.1061   0.4063   0.1409
   0.400   0.5324   0.00506   0.00072  -0.1062   0.4038   0.1431
   0.500   0.5438   0.00506   0.00073  -0.1062   0.3999   0.1531
   0.600   0.5553   0.00507   0.00074  -0.1063   0.3952   0.1570
   0.700   0.5669   0.00507   0.00075  -0.1064   0.3934   0.1614
   0.800   0.5785   0.00506   0.00075  -0.1065   0.3919   0.1697
   0.900   0.5901   0.00506   0.00076  -0.1065   0.3900   0.1735
   1.000   0.6015   0.00508   0.00077  -0.1066   0.3855   0.1796
   1.100   0.6128   0.00509   0.00079  -0.1066   0.3806   0.1867
   1.200   0.6244   0.00510   0.00079  -0.1067   0.3776   0.1906
   1.300   0.6360   0.00510   0.00080  -0.1068   0.3757   0.1992
   1.400   0.6473   0.00512   0.00082  -0.1068   0.3711   0.2045
   1.500   0.6586   0.00515   0.00084  -0.1068   0.3655   0.2086
   1.600   0.6701   0.00514   0.00085  -0.1069   0.3620   0.2204
   1.700   0.6816   0.00516   0.00086  -0.1070   0.3592   0.2237
   1.800   0.6928   0.00518   0.00088  -0.1070   0.3543   0.2319
   1.900   0.7040   0.00521   0.00091  -0.1070   0.3472   0.2381
   2.000   0.7155   0.00522   0.00092  -0.1071   0.3448   0.2467
   2.100   0.7267   0.00525   0.00094  -0.1071   0.3398   0.2550
   2.200   0.7379   0.00529   0.00097  -0.1071   0.3321   0.2593
   2.300   0.7493   0.00530   0.00099  -0.1072   0.3289   0.2708
   2.400   0.7603   0.00535   0.00102  -0.1071   0.3216   0.2753
   2.500   0.7715   0.00537   0.00104  -0.1072   0.3157   0.2874
   2.600   0.7827   0.00540   0.00107  -0.1072   0.3108   0.2932
   2.700   0.7936   0.00546   0.00111  -0.1072   0.3009   0.3033
   2.800   0.8048   0.00549   0.00113  -0.1072   0.2967   0.3099
   2.900   0.8156   0.00555   0.00118  -0.1071   0.2872   0.3227
   3.000   0.8268   0.00557   0.00120  -0.1072   0.2827   0.3328
   3.100   0.8375   0.00564   0.00125  -0.1071   0.2731   0.3422
   3.200   0.8487   0.00566   0.00128  -0.1071   0.2675   0.3566
   3.300   0.8593   0.00574   0.00133  -0.1071   0.2568   0.3685
   3.400   0.8705   0.00576   0.00136  -0.1071   0.2525   0.3807
   3.500   0.8811   0.00582   0.00142  -0.1070   0.2427   0.3999
   3.600   0.8922   0.00584   0.00144  -0.1070   0.2379   0.4167
   3.800   0.9137   0.00592   0.00154  -0.1070   0.2217   0.4660
   3.900   0.9243   0.00598   0.00160  -0.1069   0.2129   0.4876
   4.000   0.9353   0.00600   0.00164  -0.1069   0.2078   0.5047
   4.100   0.9458   0.00608   0.00170  -0.1068   0.1980   0.5220
   4.400   0.9780   0.00623   0.00186  -0.1067   0.1769   0.5727
   4.500   0.9885   0.00630   0.00192  -0.1066   0.1673   0.5898
   4.600   0.9993   0.00634   0.00196  -0.1066   0.1632   0.6058
   4.700   1.0097   0.00642   0.00203  -0.1065   0.1528   0.6260
   4.900   1.0309   0.00653   0.00215  -0.1063   0.1392   0.6632
   5.000   1.0415   0.00658   0.00221  -0.1063   0.1344   0.6832
   5.100   1.0519   0.00664   0.00228  -0.1062   0.1257   0.7046
   5.200   1.0627   0.00668   0.00234  -0.1062   0.1220   0.7257
   5.300   1.0729   0.00676   0.00241  -0.1060   0.1124   0.7474
   5.400   1.0835   0.00681   0.00247  -0.1060   0.1083   0.7680
   5.500   1.0938   0.00687   0.00256  -0.1058   0.1009   0.7924
   5.700   1.1147   0.00696   0.00268  -0.1057   0.0921   0.8371
   5.800   1.1252   0.00699   0.00274  -0.1056   0.0869   0.8642
   5.900   1.1353   0.00705   0.00283  -0.1054   0.0818   0.8874
   6.000   1.1453   0.00709   0.00289  -0.1052   0.0762   0.9138
   6.100   1.1550   0.00710   0.00296  -0.1049   0.0738   0.9428
   6.200   1.1633   0.00715   0.00304  -0.1043   0.0698   0.9704
   6.300   1.1733   0.00719   0.00309  -0.1041   0.0655   0.9925
   6.400   1.1857   0.00727   0.00315  -0.1044   0.0628   1.0000
   6.500   1.1959   0.00739   0.00323  -0.1043   0.0577   1.0000
   6.600   1.2066   0.00745   0.00328  -0.1042   0.0554   1.0000
   6.700   1.2170   0.00754   0.00335  -0.1041   0.0528   1.0000
   6.800   1.2273   0.00764   0.00342  -0.1040   0.0494   1.0000
   6.900   1.2380   0.00770   0.00348  -0.1040   0.0475   1.0000
   7.000   1.2486   0.00778   0.00354  -0.1039   0.0460   1.0000
   7.100   1.2588   0.00788   0.00362  -0.1037   0.0434   1.0000
   7.200   1.2692   0.00796   0.00368  -0.1037   0.0404   1.0000
   7.300   1.2797   0.00804   0.00375  -0.1036   0.0391   1.0000
   7.400   1.2899   0.00814   0.00382  -0.1034   0.0370   1.0000
   7.500   1.3003   0.00822   0.00389  -0.1033   0.0347   1.0000
   7.600   1.3108   0.00829   0.00395  -0.1033   0.0338   1.0000
   7.700   1.3213   0.00836   0.00401  -0.1032   0.0329   1.0000
   7.800   1.3315   0.00846   0.00409  -0.1030   0.0315   1.0000
   7.900   1.3417   0.00855   0.00417  -0.1029   0.0298   1.0000
   8.000   1.3521   0.00862   0.00423  -0.1028   0.0286   1.0000
   8.100   1.3625   0.00869   0.00429  -0.1027   0.0281   1.0000
   8.200   1.3726   0.00878   0.00437  -0.1026   0.0269   1.0000
   8.300   1.3826   0.00888   0.00446  -0.1024   0.0253   1.0000
   8.400   1.3929   0.00896   0.00453  -0.1023   0.0241   1.0000
   8.500   1.4032   0.00904   0.00459  -0.1022   0.0237   1.0000
   8.600   1.4134   0.00912   0.00467  -0.1021   0.0232   1.0000
   8.700   1.4235   0.00921   0.00475  -0.1019   0.0223   1.0000
   8.800   1.4334   0.00931   0.00483  -0.1018   0.0214   1.0000
   8.900   1.4435   0.00939   0.00491  -0.1016   0.0203   1.0000
   9.000   1.4537   0.00947   0.00498  -0.1015   0.0199   1.0000
   9.100   1.4638   0.00954   0.00505  -0.1014   0.0197   1.0000
   9.200   1.4738   0.00963   0.00513  -0.1012   0.0192   1.0000
   9.300   1.4837   0.00973   0.00521  -0.1011   0.0186   1.0000
   9.400   1.4934   0.00983   0.00531  -0.1009   0.0178   1.0000
   9.500   1.5032   0.00993   0.00539  -0.1007   0.0168   1.0000
   9.600   1.5131   0.01001   0.00547  -0.1005   0.0165   1.0000
   9.700   1.5230   0.01009   0.00555  -0.1004   0.0163   1.0000
   9.800   1.5328   0.01018   0.00563  -0.1002   0.0159   1.0000
   9.900   1.5425   0.01028   0.00572  -0.1000   0.0155   1.0000
  10.000   1.5520   0.01039   0.00582  -0.0997   0.0150   1.0000
  10.100   1.5615   0.01049   0.00592  -0.0995   0.0145   1.0000
  10.200   1.5711   0.01059   0.00601  -0.0993   0.0139   1.0000
  10.300   1.5807   0.01068   0.00609  -0.0991   0.0135   1.0000
  10.400   1.5904   0.01077   0.00618  -0.0989   0.0134   1.0000
  10.500   1.5999   0.01086   0.00627  -0.0987   0.0133   1.0000
  10.600   1.6094   0.01095   0.00636  -0.0985   0.0131   1.0000
  10.700   1.6187   0.01105   0.00645  -0.0982   0.0128   1.0000
  10.800   1.6279   0.01116   0.00656  -0.0979   0.0125   1.0000
  10.900   1.6370   0.01128   0.00666  -0.0976   0.0122   1.0000
  11.000   1.6460   0.01139   0.00677  -0.0973   0.0117   1.0000
  11.100   1.6550   0.01150   0.00688  -0.0970   0.0113   1.0000
  11.200   1.6641   0.01161   0.00698  -0.0967   0.0109   1.0000
  11.300   1.6733   0.01171   0.00708  -0.0964   0.0109   1.0000
  11.400   1.6823   0.01181   0.00718  -0.0961   0.0108   1.0000
  11.500   1.6913   0.01191   0.00728  -0.0958   0.0107   1.0000
  11.600   1.7000   0.01203   0.00739  -0.0955   0.0105   1.0000
  11.700   1.7087   0.01214   0.00750  -0.0951   0.0103   1.0000
  11.800   1.7171   0.01227   0.00762  -0.0947   0.0101   1.0000
  11.900   1.7253   0.01239   0.00774  -0.0943   0.0098   1.0000
  12.000   1.7333   0.01252   0.00787  -0.0938   0.0096   1.0000
  12.100   1.7413   0.01265   0.00799  -0.0933   0.0093   1.0000
  12.200   1.7492   0.01277   0.00811  -0.0928   0.0090   1.0000
  12.300   1.7567   0.01289   0.00823  -0.0922   0.0087   1.0000
  12.400   1.7639   0.01301   0.00835  -0.0916   0.0087   1.0000
  12.500   1.7710   0.01312   0.00846  -0.0909   0.0086   1.0000
  12.600   1.7780   0.01324   0.00859  -0.0902   0.0086   1.0000
  12.700   1.7848   0.01337   0.00871  -0.0895   0.0085   1.0000
  12.800   1.7916   0.01350   0.00884  -0.0889   0.0085   1.0000
  12.900   1.7986   0.01363   0.00898  -0.0882   0.0084   1.0000
  13.000   1.8053   0.01377   0.00912  -0.0875   0.0083   1.0000
  13.100   1.8119   0.01392   0.00927  -0.0868   0.0082   1.0000
  13.200   1.8183   0.01408   0.00943  -0.0861   0.0081   1.0000
  13.300   1.8247   0.01425   0.00959  -0.0854   0.0079   1.0000
  13.400   1.8310   0.01442   0.00977  -0.0847   0.0078   1.0000
  13.500   1.8372   0.01459   0.00994  -0.0839   0.0076   1.0000
  13.600   1.8433   0.01478   0.01013  -0.0832   0.0075   1.0000
  13.700   1.8495   0.01496   0.01031  -0.0825   0.0073   1.0000
  13.800   1.8557   0.01514   0.01050  -0.0818   0.0071   1.0000
  13.900   1.8617   0.01533   0.01069  -0.0811   0.0069   1.0000
  14.000   1.8678   0.01553   0.01089  -0.0804   0.0068   1.0000
  14.100   1.8741   0.01572   0.01108  -0.0797   0.0067   1.0000
  14.200   1.8806   0.01590   0.01126  -0.0791   0.0067   1.0000
  14.300   1.8866   0.01609   0.01146  -0.0784   0.0067   1.0000
  14.400   1.8926   0.01630   0.01167  -0.0778   0.0066   1.0000
  14.500   1.8986   0.01650   0.01188  -0.0771   0.0066   1.0000
  14.600   1.9049   0.01671   0.01209  -0.0765   0.0066   1.0000
  14.700   1.9108   0.01694   0.01232  -0.0759   0.0065   1.0000
  14.800   1.9162   0.01717   0.01256  -0.0751   0.0065   1.0000
  14.900   1.9216   0.01742   0.01281  -0.0744   0.0064   1.0000
  15.000   1.9273   0.01766   0.01305  -0.0738   0.0063   1.0000
  15.100   1.9328   0.01791   0.01331  -0.0731   0.0063   1.0000
  15.200   1.9376   0.01820   0.01360  -0.0724   0.0062   1.0000
  15.300   1.9426   0.01849   0.01390  -0.0717   0.0061   1.0000
  15.400   1.9477   0.01878   0.01420  -0.0710   0.0060   1.0000
  15.500   1.9525   0.01909   0.01451  -0.0703   0.0059   1.0000
  15.600   1.9567   0.01942   0.01484  -0.0695   0.0058   1.0000
  15.700   1.9614   0.01974   0.01517  -0.0688   0.0057   1.0000
  15.800   1.9662   0.02006   0.01549  -0.0681   0.0056   1.0000
  15.900   1.9704   0.02042   0.01586  -0.0674   0.0055   1.0000
  16.000   1.9748   0.02077   0.01622  -0.0667   0.0054   1.0000
  16.100   1.9796   0.02111   0.01656  -0.0661   0.0053   1.0000
  16.200   1.9838   0.02149   0.01695  -0.0654   0.0052   1.0000
  16.300   1.9877   0.02189   0.01735  -0.0648   0.0051   1.0000
  16.400   1.9922   0.02225   0.01772  -0.0641   0.0050   1.0000
  16.500   1.9968   0.02260   0.01809  -0.0635   0.0050   1.0000
  16.600   2.0006   0.02302   0.01851  -0.0629   0.0050   1.0000
  16.700   2.0048   0.02341   0.01891  -0.0623   0.0050   1.0000
  16.800   2.0094   0.02379   0.01930  -0.0617   0.0050   1.0000
  16.900   2.0131   0.02424   0.01975  -0.0611   0.0050   1.0000
  17.000   2.0169   0.02468   0.02020  -0.0605   0.0050   1.0000
  17.100   2.0212   0.02510   0.02063  -0.0600   0.0050   1.0000
  17.200   2.0248   0.02556   0.02111  -0.0594   0.0049   1.0000
  17.300   2.0281   0.02606   0.02162  -0.0588   0.0049   1.0000
  17.400   2.0318   0.02652   0.02209  -0.0583   0.0049   1.0000
  17.500   2.0350   0.02703   0.02260  -0.0577   0.0049   1.0000
  17.600   2.0377   0.02758   0.02316  -0.0571   0.0049   1.0000
  17.700   2.0410   0.02809   0.02369  -0.0566   0.0048   1.0000
  17.800   2.0439   0.02865   0.02426  -0.0560   0.0048   1.0000
  17.900   2.0463   0.02926   0.02488  -0.0555   0.0048   1.0000
  18.000   2.0495   0.02981   0.02544  -0.0550   0.0048   1.0000
  18.100   2.0518   0.03044   0.02608  -0.0545   0.0047   1.0000
  18.200   2.0539   0.03111   0.02676  -0.0540   0.0047   1.0000
  18.300   2.0567   0.03171   0.02737  -0.0535   0.0047   1.0000
  18.400   2.0580   0.03246   0.02814  -0.0530   0.0046   1.0000
  18.500   2.0600   0.03315   0.02883  -0.0525   0.0046   1.0000
  18.600   2.0619   0.03384   0.02954  -0.0521   0.0045   1.0000
  18.700   2.0629   0.03464   0.03036  -0.0516   0.0045   1.0000
  18.800   2.0644   0.03539   0.03112  -0.0512   0.0044   1.0000
  18.900   2.0650   0.03627   0.03200  -0.0507   0.0044   1.0000
  19.000   2.0660   0.03710   0.03285  -0.0503   0.0043   1.0000
  19.100   2.0675   0.03788   0.03365  -0.0499   0.0043   1.0000
  19.200   2.0678   0.03882   0.03460  -0.0496   0.0042   1.0000
  19.300   2.0688   0.03967   0.03547  -0.0492   0.0042   1.0000
  19.400   2.0692   0.04062   0.03643  -0.0489   0.0041   1.0000
  19.500   2.0698   0.04155   0.03737  -0.0486   0.0041   1.0000
  19.600   2.0705   0.04243   0.03827  -0.0483   0.0040   1.0000
  19.700   2.0693   0.04356   0.03941  -0.0480   0.0039   1.0000
  19.800   2.0703   0.04444   0.04032  -0.0477   0.0039   1.0000
  19.900   2.0695   0.04555   0.04144  -0.0474   0.0038   1.0000
  20.000   2.0691   0.04662   0.04252  -0.0472   0.0037   1.0000
  20.100   2.0694   0.04760   0.04352  -0.0470   0.0037   1.0000
  20.200   2.0681   0.04881   0.04475  -0.0468   0.0037   1.0000
  20.300   2.0685   0.04980   0.04576  -0.0466   0.0036   1.0000
  20.400   2.0668   0.05107   0.04705  -0.0465   0.0036   1.0000
  20.500   2.0668   0.05213   0.04812  -0.0463   0.0036   1.0000
  20.600   2.0666   0.05322   0.04923  -0.0462   0.0036   1.0000
  20.700   2.0651   0.05449   0.05052  -0.0461   0.0036   1.0000
  20.800   2.0652   0.05551   0.05156  -0.0460   0.0036   1.0000
  20.900   2.0629   0.05687   0.05294  -0.0459   0.0036   1.0000
  21.000   2.0621   0.05804   0.05413  -0.0458   0.0036   1.0000
  21.100   2.0616   0.05918   0.05529  -0.0458   0.0036   1.0000
  21.200   2.0588   0.06064   0.05677  -0.0458   0.0036   1.0000
  21.300   2.0582   0.06181   0.05795  -0.0457   0.0036   1.0000
  21.400   2.0556   0.06326   0.05942  -0.0458   0.0036   1.0000
  21.500   2.0537   0.06460   0.06079  -0.0458   0.0036   1.0000
  21.600   2.0530   0.06580   0.06200  -0.0458   0.0036   1.0000
  21.700   2.0490   0.06743   0.06367  -0.0459   0.0036   1.0000
  21.800   2.0477   0.06872   0.06497  -0.0460   0.0036   1.0000
  21.900   2.0445   0.07023   0.06651  -0.0461   0.0035   1.0000
  22.000   2.0414   0.07175   0.06805  -0.0462   0.0035   1.0000
  22.100   2.0398   0.07304   0.06935  -0.0462   0.0035   1.0000
  22.200   2.0349   0.07483   0.07117  -0.0464   0.0035   1.0000
  22.300   2.0326   0.07625   0.07261  -0.0466   0.0035   1.0000
  22.400   2.0300   0.07773   0.07411  -0.0467   0.0035   1.0000
  22.500   2.0250   0.07955   0.07596  -0.0470   0.0035   1.0000
  22.600   2.0230   0.08095   0.07738  -0.0471   0.0035   1.0000
  22.700   2.0179   0.08279   0.07925  -0.0474   0.0035   1.0000
  22.800   2.0144   0.08441   0.08089  -0.0477   0.0035   1.0000
  22.900   2.0122   0.08584   0.08233  -0.0479   0.0035   1.0000
  23.000   2.0055   0.08790   0.08443  -0.0483   0.0035   1.0000
  23.100   2.0022   0.08947   0.08602  -0.0486   0.0035   1.0000
  23.200   1.9998   0.09091   0.08748  -0.0488   0.0035   1.0000
  23.300   1.9924   0.09311   0.08971  -0.0493   0.0035   1.0000
  23.400   1.9892   0.09470   0.09132  -0.0496   0.0034   1.0000
  23.500   1.9863   0.09625   0.09289  -0.0499   0.0034   1.0000
  23.600   1.9787   0.09851   0.09519  -0.0505   0.0034   1.0000
  23.700   1.9756   0.10010   0.09680  -0.0509   0.0034   1.0000
  23.800   1.9718   0.10179   0.09851  -0.0513   0.0034   1.0000
  23.900   1.9647   0.10400   0.10075  -0.0520   0.0034   1.0000
  24.000   1.9613   0.10565   0.10242  -0.0524   0.0034   1.0000
  24.100   1.9577   0.10731   0.10410  -0.0528   0.0033   1.0000
  24.200   1.9490   0.10974   0.10656  -0.0536   0.0033   1.0000
  24.300   1.9457   0.11136   0.10820  -0.0541   0.0033   1.0000
  24.400   1.9423   0.11299   0.10985  -0.0546   0.0033   1.0000
  24.500   1.9335   0.11550   0.11239  -0.0555   0.0033   1.0000
  24.600   1.9303   0.11714   0.11406  -0.0560   0.0033   1.0000
  24.700   1.9275   0.11872   0.11565  -0.0565   0.0033   1.0000
  24.800   1.9179   0.12139   0.11836  -0.0576   0.0033   1.0000
  24.900   1.9139   0.12319   0.12017  -0.0583   0.0032   1.0000
  25.000   1.9116   0.12471   0.12172  -0.0589   0.0032   1.0000
  25.100   1.9021   0.12741   0.12445  -0.0600   0.0032   1.0000
  25.200   1.8986   0.12913   0.12619  -0.0607   0.0032   1.0000
  25.300   1.8961   0.13070   0.12778  -0.0614   0.0032   1.0000
  25.400   1.8872   0.13330   0.13042  -0.0626   0.0032   1.0000
  25.500   1.8823   0.13523   0.13237  -0.0635   0.0031   1.0000
  25.600   1.8792   0.13689   0.13405  -0.0642   0.0031   1.0000
  25.700   1.8714   0.13936   0.13655  -0.0654   0.0031   1.0000
  25.800   1.8657   0.14148   0.13869  -0.0665   0.0031   1.0000
  25.900   1.8634   0.14305   0.14028  -0.0673   0.0031   1.0000
  26.000   1.8560   0.14550   0.14276  -0.0686   0.0031   1.0000
  26.100   1.8500   0.14773   0.14502  -0.0698   0.0030   1.0000
  26.200   1.8469   0.14945   0.14676  -0.0708   0.0030   1.0000
  26.300   1.8436   0.15122   0.14855  -0.0717   0.0030   1.0000
  26.400   1.8338   0.15415   0.15152  -0.0735   0.0030   1.0000
  26.500   1.8317   0.15573   0.15312  -0.0744   0.0030   1.0000
  26.600   1.8281   0.15758   0.15498  -0.0755   0.0029   1.0000
  26.700   1.8190   0.16043   0.15787  -0.0773   0.0030   1.0000
  26.800   1.8160   0.16219   0.15965  -0.0784   0.0029   1.0000
  26.900   1.8131   0.16393   0.16140  -0.0795   0.0029   1.0000
  27.000   1.8032   0.16693   0.16445  -0.0815   0.0029   1.0000
  27.100   1.7990   0.16889   0.16642  -0.0828   0.0028   1.0000
  27.200   1.7972   0.17043   0.16798  -0.0838   0.0028   1.0000
  27.300   1.7888   0.17321   0.17080  -0.0857   0.0029   1.0000
  27.400   1.7838   0.17538   0.17300  -0.0872   0.0028   1.0000
  27.500   1.7813   0.17708   0.17471  -0.0884   0.0028   1.0000
  27.600   1.7782   0.17890   0.17655  -0.0897   0.0028   1.0000
  27.700   1.7677   0.18220   0.17989  -0.0921   0.0027   1.0000
  27.800   1.7651   0.18394   0.18165  -0.0934   0.0027   1.0000
  27.900   1.7626   0.18568   0.18341  -0.0947   0.0027   1.0000
  28.000   1.7517   0.18911   0.18688  -0.0973   0.0027   1.0000
  28.100   1.7490   0.19093   0.18872  -0.0987   0.0027   1.0000
  28.200   1.7464   0.19271   0.19051  -0.1001   0.0026   1.0000
  28.300   1.7356   0.19618   0.19404  -0.1028   0.0026   1.0000
  28.400   1.7331   0.19798   0.19586  -0.1042   0.0026   1.0000
  28.500   1.7300   0.19989   0.19778  -0.1058   0.0026   1.0000
  28.600   1.7189   0.20352   0.20145  -0.1086   0.0026   1.0000
  28.700   1.7162   0.20536   0.20332  -0.1102   0.0026   1.0000
  28.800   1.7133   0.20729   0.20527  -0.1118   0.0025   1.0000
  28.900   1.7104   0.20918   0.20718  -0.1134   0.0025   1.0000
  29.000   1.6987   0.21302   0.21107  -0.1165   0.0025   1.0000
  29.100   1.6964   0.21485   0.21292  -0.1181   0.0025   1.0000
  29.200   1.6942   0.21664   0.21472  -0.1197   0.0025   1.0000
  29.400   1.6785   0.22275   0.22090  -0.1249   0.0025   1.0000
  29.500   1.6756   0.22468   0.22285  -0.1266   0.0024   1.0000
  29.600   1.6620   0.22902   0.22724  -0.1303   0.0024   1.0000
  29.700   1.6598   0.23084   0.22909  -0.1320   0.0024   1.0000
  29.800   1.6578   0.23259   0.23085  -0.1336   0.0024   1.0000
  29.900   1.6548   0.23461   0.23289  -0.1354   0.0024   1.0000
  30.000   1.6411   0.23917   0.23751  -0.1393   0.0024   1.0000
