  
       XFOIL         Version 6.99
  
 Calculated polar for: NACA 4412                                       
  
 1 1 Reynolds number fixed          Mach number fixed         
  
 xtrf =   1.000 (top)        1.000 (bottom)  
 Mach =   0.000     Re =    60.000 e 6     Ncrit =   9.000
  
   alpha    CL        CD       CDp       CM     Top_Xtr  Bot_Xtr
  ------ -------- --------- --------- -------- -------- --------
  -4.900  -0.0857   0.00499   0.00104  -0.1023   0.4246   0.0174
  -4.800  -0.0740   0.00498   0.00102  -0.1024   0.4232   0.0179
  -4.700  -0.0623   0.00496   0.00101  -0.1025   0.4215   0.0185
  -4.600  -0.0506   0.00495   0.00099  -0.1025   0.4191   0.0192
  -4.500  -0.0389   0.00494   0.00097  -0.1026   0.4163   0.0196
  -4.400  -0.0272   0.00491   0.00096  -0.1027   0.4137   0.0202
  -4.300  -0.0155   0.00490   0.00094  -0.1028   0.4104   0.0206
  -4.200  -0.0037   0.00488   0.00092  -0.1029   0.4095   0.0208
  -4.100   0.0081   0.00487   0.00091  -0.1030   0.4091   0.0208
  -4.000   0.0199   0.00485   0.00089  -0.1031   0.4087   0.0219
  -3.900   0.0316   0.00483   0.00088  -0.1031   0.4076   0.0228
  -3.800   0.0433   0.00481   0.00086  -0.1032   0.4059   0.0236
  -3.700   0.0549   0.00480   0.00085  -0.1033   0.4027   0.0243
  -3.600   0.0666   0.00480   0.00084  -0.1034   0.3993   0.0246
  -3.500   0.0783   0.00479   0.00083  -0.1035   0.3951   0.0247
  -3.400   0.0901   0.00478   0.00082  -0.1036   0.3936   0.0254
  -3.300   0.1019   0.00477   0.00081  -0.1036   0.3929   0.0262
  -3.200   0.1136   0.00475   0.00080  -0.1037   0.3918   0.0272
  -3.100   0.1253   0.00474   0.00079  -0.1038   0.3888   0.0283
  -3.000   0.1369   0.00474   0.00078  -0.1039   0.3855   0.0289
  -2.900   0.1486   0.00474   0.00078  -0.1040   0.3811   0.0291
  -2.800   0.1604   0.00473   0.00076  -0.1040   0.3779   0.0305
  -2.700   0.1721   0.00472   0.00075  -0.1041   0.3772   0.0319
  -2.500   0.1954   0.00471   0.00074  -0.1043   0.3713   0.0338
  -2.400   0.2071   0.00472   0.00074  -0.1044   0.3670   0.0341
  -2.300   0.2188   0.00471   0.00074  -0.1044   0.3627   0.0349
  -2.200   0.2305   0.00470   0.00073  -0.1045   0.3619   0.0366
  -2.100   0.2423   0.00469   0.00072  -0.1046   0.3607   0.0383
  -2.000   0.2538   0.00470   0.00072  -0.1047   0.3564   0.0395
  -1.900   0.2655   0.00470   0.00072  -0.1048   0.3530   0.0399
  -1.800   0.2771   0.00471   0.00072  -0.1048   0.3472   0.0420
  -1.700   0.2889   0.00470   0.00071  -0.1049   0.3463   0.0438
  -1.600   0.3006   0.00469   0.00070  -0.1050   0.3445   0.0453
  -1.500   0.3121   0.00470   0.00071  -0.1051   0.3403   0.0464
  -1.400   0.3237   0.00471   0.00071  -0.1051   0.3343   0.0479
  -1.300   0.3354   0.00471   0.00070  -0.1052   0.3314   0.0503
  -1.200   0.3471   0.00470   0.00070  -0.1053   0.3301   0.0528
  -1.100   0.3586   0.00471   0.00070  -0.1054   0.3262   0.0540
  -1.000   0.3702   0.00473   0.00071  -0.1054   0.3213   0.0544
  -0.900   0.3819   0.00473   0.00072  -0.1055   0.3165   0.0572
  -0.800   0.3935   0.00473   0.00071  -0.1056   0.3146   0.0597
  -0.700   0.4051   0.00474   0.00071  -0.1057   0.3114   0.0618
  -0.600   0.4165   0.00476   0.00073  -0.1057   0.3050   0.0633
  -0.500   0.4282   0.00476   0.00073  -0.1058   0.3009   0.0649
  -0.400   0.4399   0.00476   0.00073  -0.1059   0.2991   0.0697
  -0.300   0.4513   0.00479   0.00074  -0.1059   0.2935   0.0720
  -0.200   0.4628   0.00480   0.00075  -0.1060   0.2875   0.0734
  -0.100   0.4745   0.00480   0.00075  -0.1061   0.2852   0.0748
   0.000   0.4861   0.00482   0.00075  -0.1061   0.2827   0.0783
   0.100   0.4974   0.00484   0.00077  -0.1062   0.2760   0.0830
   0.200   0.5090   0.00485   0.00077  -0.1062   0.2706   0.0850
   0.300   0.5206   0.00486   0.00078  -0.1063   0.2687   0.0858
   0.400   0.5320   0.00489   0.00080  -0.1064   0.2635   0.0896
   0.500   0.5434   0.00491   0.00081  -0.1064   0.2555   0.0934
   0.700   0.5663   0.00495   0.00084  -0.1065   0.2476   0.0983
   0.800   0.5778   0.00498   0.00085  -0.1066   0.2406   0.1023
   1.000   0.6006   0.00502   0.00088  -0.1067   0.2329   0.1108
   1.100   0.6121   0.00504   0.00089  -0.1067   0.2252   0.1120
   1.200   0.6236   0.00506   0.00091  -0.1068   0.2229   0.1159
   1.300   0.6349   0.00510   0.00093  -0.1068   0.2174   0.1204
   1.400   0.6463   0.00512   0.00094  -0.1068   0.2103   0.1239
   1.500   0.6575   0.00516   0.00097  -0.1069   0.2051   0.1268
   1.600   0.6688   0.00520   0.00099  -0.1069   0.1962   0.1321
   1.800   0.6915   0.00525   0.00103  -0.1070   0.1893   0.1406
   1.900   0.7029   0.00528   0.00105  -0.1070   0.1815   0.1424
   2.000   0.7142   0.00532   0.00107  -0.1070   0.1773   0.1476
   2.100   0.7254   0.00535   0.00110  -0.1071   0.1719   0.1534
   2.300   0.7479   0.00543   0.00114  -0.1071   0.1607   0.1579
   2.400   0.7593   0.00546   0.00117  -0.1071   0.1540   0.1650
   2.500   0.7707   0.00548   0.00118  -0.1072   0.1517   0.1710
   2.600   0.7817   0.00554   0.00122  -0.1072   0.1453   0.1733
   2.700   0.7931   0.00557   0.00124  -0.1072   0.1393   0.1744
   2.800   0.8045   0.00559   0.00126  -0.1073   0.1377   0.1797
   2.900   0.8154   0.00565   0.00131  -0.1072   0.1279   0.1887
   3.000   0.8268   0.00568   0.00132  -0.1073   0.1247   0.1904
   3.100   0.8381   0.00571   0.00135  -0.1073   0.1224   0.1947
   3.200   0.8491   0.00576   0.00139  -0.1073   0.1167   0.2023
   3.300   0.8605   0.00578   0.00140  -0.1074   0.1122   0.2063
   3.400   0.8715   0.00585   0.00145  -0.1073   0.1071   0.2070
   3.500   0.8827   0.00588   0.00148  -0.1074   0.1020   0.2188
   3.600   0.8940   0.00590   0.00150  -0.1074   0.0993   0.2219
   3.700   0.9051   0.00596   0.00153  -0.1074   0.0956   0.2235
   3.800   0.9161   0.00601   0.00158  -0.1074   0.0891   0.2272
   3.900   0.9275   0.00603   0.00159  -0.1075   0.0874   0.2380
   4.000   0.9385   0.00608   0.00163  -0.1075   0.0842   0.2399
   4.100   0.9495   0.00614   0.00168  -0.1074   0.0772   0.2463
   4.200   0.9608   0.00616   0.00170  -0.1075   0.0760   0.2526
   4.300   0.9721   0.00618   0.00172  -0.1075   0.0753   0.2569
   4.400   0.9831   0.00624   0.00177  -0.1075   0.0720   0.2625
   4.500   0.9941   0.00629   0.00181  -0.1075   0.0656   0.2703
   4.600   1.0053   0.00631   0.00184  -0.1075   0.0649   0.2745
   4.700   1.0163   0.00638   0.00188  -0.1075   0.0617   0.2803
   4.800   1.0274   0.00641   0.00192  -0.1075   0.0589   0.2883
   4.900   1.0385   0.00645   0.00195  -0.1075   0.0559   0.2910
   5.000   1.0493   0.00651   0.00200  -0.1075   0.0526   0.2996
   5.100   1.0604   0.00655   0.00204  -0.1075   0.0510   0.3066
   5.200   1.0716   0.00659   0.00207  -0.1075   0.0478   0.3092
   5.300   1.0827   0.00661   0.00210  -0.1076   0.0474   0.3186
   5.400   1.0937   0.00666   0.00215  -0.1075   0.0456   0.3251
   5.500   1.1045   0.00672   0.00220  -0.1075   0.0423   0.3292
   5.600   1.1156   0.00675   0.00223  -0.1075   0.0403   0.3407
   5.700   1.1266   0.00679   0.00228  -0.1075   0.0393   0.3439
   5.800   1.1375   0.00685   0.00233  -0.1075   0.0373   0.3540
   5.900   1.1485   0.00689   0.00237  -0.1075   0.0354   0.3598
   6.000   1.1595   0.00692   0.00240  -0.1075   0.0341   0.3677
   6.100   1.1706   0.00696   0.00244  -0.1075   0.0336   0.3753
   6.200   1.1813   0.00702   0.00250  -0.1075   0.0318   0.3863
   6.300   1.1922   0.00706   0.00254  -0.1075   0.0299   0.3929
   6.400   1.2032   0.00710   0.00258  -0.1075   0.0286   0.4051
   6.500   1.2141   0.00713   0.00263  -0.1075   0.0281   0.4145
   6.600   1.2249   0.00718   0.00268  -0.1074   0.0269   0.4265
   6.700   1.2357   0.00724   0.00273  -0.1074   0.0257   0.4324
   6.900   1.2576   0.00731   0.00282  -0.1074   0.0240   0.4523
   7.000   1.2685   0.00735   0.00286  -0.1074   0.0235   0.4610
   7.100   1.2790   0.00742   0.00293  -0.1073   0.0219   0.4705
   7.200   1.2899   0.00746   0.00297  -0.1073   0.0212   0.4789
   7.300   1.3007   0.00750   0.00302  -0.1073   0.0200   0.4931
   7.400   1.3115   0.00754   0.00307  -0.1073   0.0198   0.5008
   7.600   1.3329   0.00764   0.00318  -0.1072   0.0187   0.5192
   7.700   1.3436   0.00769   0.00324  -0.1072   0.0179   0.5294
   7.800   1.3543   0.00773   0.00329  -0.1071   0.0170   0.5410
   7.900   1.3650   0.00778   0.00334  -0.1071   0.0166   0.5476
   8.000   1.3758   0.00782   0.00339  -0.1071   0.0165   0.5600
   8.100   1.3865   0.00787   0.00344  -0.1071   0.0161   0.5659
   8.200   1.3969   0.00793   0.00351  -0.1070   0.0155   0.5791
   8.300   1.4074   0.00799   0.00357  -0.1069   0.0147   0.5870
   8.400   1.4180   0.00804   0.00363  -0.1069   0.0140   0.5977
   8.500   1.4286   0.00808   0.00368  -0.1068   0.0135   0.6124
   8.600   1.4393   0.00813   0.00374  -0.1068   0.0135   0.6230
   8.700   1.4499   0.00817   0.00379  -0.1067   0.0133   0.6331
   8.900   1.4707   0.00828   0.00392  -0.1066   0.0126   0.6593
   9.000   1.4811   0.00834   0.00399  -0.1065   0.0122   0.6711
   9.100   1.4915   0.00839   0.00406  -0.1064   0.0117   0.6851
   9.200   1.5019   0.00844   0.00412  -0.1064   0.0113   0.6999
   9.300   1.5124   0.00848   0.00418  -0.1063   0.0109   0.7166
   9.400   1.5228   0.00852   0.00424  -0.1063   0.0109   0.7338
   9.500   1.5332   0.00856   0.00431  -0.1062   0.0108   0.7528
   9.600   1.5436   0.00861   0.00438  -0.1061   0.0107   0.7736
   9.700   1.5538   0.00866   0.00445  -0.1060   0.0104   0.7963
   9.900   1.5739   0.00877   0.00462  -0.1058   0.0095   0.8379
  10.000   1.5841   0.00882   0.00469  -0.1057   0.0091   0.8578
  10.100   1.5942   0.00886   0.00476  -0.1056   0.0088   0.8780
  10.200   1.6044   0.00891   0.00483  -0.1055   0.0087   0.8965
  10.300   1.6145   0.00894   0.00490  -0.1054   0.0086   0.9162
  10.400   1.6245   0.00898   0.00497  -0.1052   0.0086   0.9363
  10.500   1.6340   0.00902   0.00504  -0.1050   0.0085   0.9601
  10.600   1.6419   0.00904   0.00511  -0.1043   0.0085   0.9919
  10.700   1.6527   0.00912   0.00519  -0.1044   0.0083   1.0000
  10.800   1.6626   0.00920   0.00527  -0.1042   0.0081   1.0000
  10.900   1.6723   0.00929   0.00535  -0.1040   0.0079   1.0000
  11.000   1.6821   0.00938   0.00543  -0.1039   0.0077   1.0000
  11.100   1.6918   0.00947   0.00551  -0.1037   0.0074   1.0000
  11.200   1.7016   0.00955   0.00559  -0.1035   0.0072   1.0000
  11.300   1.7114   0.00963   0.00567  -0.1033   0.0070   1.0000
  11.400   1.7211   0.00972   0.00574  -0.1031   0.0068   1.0000
  11.500   1.7308   0.00980   0.00582  -0.1030   0.0067   1.0000
  11.600   1.7406   0.00988   0.00589  -0.1028   0.0067   1.0000
  11.700   1.7502   0.00996   0.00597  -0.1026   0.0067   1.0000
  11.800   1.7598   0.01004   0.00605  -0.1024   0.0066   1.0000
  11.900   1.7694   0.01012   0.00613  -0.1022   0.0066   1.0000
  12.000   1.7789   0.01021   0.00621  -0.1020   0.0065   1.0000
  12.100   1.7882   0.01031   0.00630  -0.1018   0.0065   1.0000
  12.200   1.7974   0.01041   0.00640  -0.1015   0.0063   1.0000
  12.300   1.8064   0.01052   0.00650  -0.1012   0.0061   1.0000
  12.400   1.8153   0.01063   0.00660  -0.1009   0.0059   1.0000
  12.500   1.8243   0.01074   0.00671  -0.1006   0.0057   1.0000
  12.600   1.8333   0.01084   0.00680  -0.1003   0.0056   1.0000
  12.700   1.8423   0.01094   0.00690  -0.1000   0.0054   1.0000
  12.800   1.8512   0.01104   0.00699  -0.0997   0.0053   1.0000
  12.900   1.8601   0.01113   0.00709  -0.0994   0.0051   1.0000
  13.000   1.8690   0.01123   0.00718  -0.0991   0.0050   1.0000
  13.100   1.8778   0.01133   0.00728  -0.0987   0.0050   1.0000
  13.200   1.8866   0.01143   0.00737  -0.0984   0.0050   1.0000
  13.300   1.8953   0.01153   0.00747  -0.0981   0.0050   1.0000
  13.400   1.9038   0.01163   0.00757  -0.0977   0.0050   1.0000
  13.500   1.9120   0.01173   0.00767  -0.0973   0.0050   1.0000
  13.600   1.9201   0.01183   0.00777  -0.0968   0.0050   1.0000
  13.700   1.9281   0.01194   0.00787  -0.0963   0.0049   1.0000
  13.800   1.9360   0.01205   0.00798  -0.0958   0.0049   1.0000
  13.900   1.9433   0.01215   0.00808  -0.0952   0.0049   1.0000
  14.000   1.9497   0.01227   0.00820  -0.0944   0.0048   1.0000
  14.100   1.9559   0.01239   0.00832  -0.0936   0.0048   1.0000
  14.200   1.9617   0.01252   0.00845  -0.0927   0.0047   1.0000
  14.300   1.9674   0.01266   0.00859  -0.0918   0.0046   1.0000
  14.400   1.9737   0.01280   0.00872  -0.0910   0.0046   1.0000
  14.500   1.9801   0.01294   0.00886  -0.0903   0.0045   1.0000
  14.600   1.9856   0.01310   0.00903  -0.0894   0.0044   1.0000
  14.700   1.9915   0.01326   0.00918  -0.0886   0.0043   1.0000
  14.800   1.9979   0.01340   0.00933  -0.0879   0.0042   1.0000
  14.900   2.0043   0.01356   0.00948  -0.0872   0.0042   1.0000
  15.000   2.0102   0.01372   0.00965  -0.0864   0.0041   1.0000
  15.100   2.0160   0.01389   0.00981  -0.0856   0.0040   1.0000
  15.200   2.0222   0.01405   0.00998  -0.0849   0.0039   1.0000
  15.300   2.0287   0.01421   0.01014  -0.0843   0.0038   1.0000
  15.400   2.0346   0.01439   0.01032  -0.0836   0.0038   1.0000
  15.500   2.0403   0.01458   0.01051  -0.0828   0.0037   1.0000
  15.600   2.0463   0.01476   0.01069  -0.0821   0.0036   1.0000
  15.700   2.0525   0.01493   0.01086  -0.0814   0.0036   1.0000
  15.800   2.0586   0.01512   0.01105  -0.0808   0.0036   1.0000
  15.900   2.0640   0.01532   0.01126  -0.0800   0.0036   1.0000
  16.000   2.0697   0.01553   0.01146  -0.0793   0.0036   1.0000
